<?xml version="1.0" encoding="UTF-8"?>

<!-- generated on 2026-02-17 16:21:10.124634 by Eclipse SUMO osmWebWizard.py v1.26.0
<configuration>
    <net-file value="C:\Users\Duke3\Downloads\SUMO\V2\2026-02-17-16-21-01\osm.net.xml.gz"/>
    <output-trip-file value="C:\Users\Duke3\Downloads\SUMO\V2\2026-02-17-16-21-01\osm.passenger.trips.xml"/>
    <route-file value="C:\Users\Duke3\Downloads\SUMO\V2\2026-02-17-16-21-01\osm.passenger.rou.xml"/>
    <prefix value="veh"/>
    <trip-attributes value="departLane=&quot;best&quot;"/>
    <fringe-start-attributes value="departSpeed=&quot;max&quot;"/>
    <vehicle-class value="passenger"/>
    <lanes value="True"/>
    <fringe-factor value="5"/>
    <allow-fringe.min-length value="1000.0"/>
    <edge-permission value="passenger"/>
    <via-edge-types value="highway.motorway,highway.motorway_link,highway.trunk_link,highway.primary_link,highway.secondary_link,highway.tertiary_link"/>
    <min-distance value="300.0"/>
    <min-distance.fringe value="10.0"/>
    <remove-loops value="True"/>
    <insertion-density value="12.0"/>
</configuration>
-->

<routes xmlns:xsi="http://www.w3.org/2001/XMLSchema-instance" xsi:noNamespaceSchemaLocation="http://sumo.dlr.de/xsd/routes_file.xsd">
    <vType id="veh_passenger" vClass="passenger"/>
    <trip id="veh0" depart="0.00" from="513238732#0" to="-1295951544" departLane="best" type="veh_passenger" departSpeed="max"/>
    <trip id="veh1" depart="7.12" from="1295951544" to="1049983327#0" departLane="best" type="veh_passenger" departSpeed="max"/>
    <trip id="veh2" depart="14.24" from="6400142#0" to="-428073485" departLane="best" type="veh_passenger"/>
    <trip id="veh3" depart="21.37" from="427906759#0" to="-1295951544" departLane="best" type="veh_passenger" departSpeed="max"/>
    <trip id="veh4" depart="28.49" from="-963864107" to="427906926#0" departLane="best" type="veh_passenger" departSpeed="max"/>
    <trip id="veh5" depart="35.61" from="-425272689#3" to="-663406349" departLane="best" type="veh_passenger" departSpeed="max"/>
    <trip id="veh6" depart="42.73" from="513490801#0" to="428073498#0" departLane="best" type="veh_passenger" departSpeed="max"/>
    <trip id="veh7" depart="49.85" from="-963864107" to="428073554#0" departLane="best" type="veh_passenger" departSpeed="max"/>
    <trip id="veh8" depart="56.98" from="425272688#0" to="-513238732#1" departLane="best" type="veh_passenger" departSpeed="max"/>
    <trip id="veh9" depart="64.10" from="987689372#0" to="26370149" departLane="best" type="veh_passenger" departSpeed="max"/>
    <trip id="veh10" depart="71.22" from="427906753#0" to="428073498#0" departLane="best" type="veh_passenger"/>
    <trip id="veh11" depart="78.34" from="623055162" to="428073554#0" departLane="best" type="veh_passenger"/>
    <trip id="veh12" depart="85.46" from="513503504#0" to="-427906751#2" departLane="best" type="veh_passenger"/>
    <trip id="veh13" depart="92.59" from="-963864107" to="1165641298" departLane="best" type="veh_passenger" departSpeed="max"/>
    <trip id="veh14" depart="99.71" from="-428073498#1" to="1049983327#0" departLane="best" type="veh_passenger" departSpeed="max"/>
    <trip id="veh15" depart="106.83" from="513238732#0" to="30615048" departLane="best" type="veh_passenger" departSpeed="max"/>
    <trip id="veh16" depart="113.95" from="513490801#0" to="428073554#0" departLane="best" type="veh_passenger" departSpeed="max"/>
    <trip id="veh17" depart="121.07" from="-6449608#2" to="513503502" departLane="best" type="veh_passenger" departSpeed="max"/>
    <trip id="veh18" depart="128.20" from="-6422057#6" to="402083657#0" departLane="best" type="veh_passenger" departSpeed="max"/>
    <trip id="veh19" depart="135.32" from="470492322#0" to="513238729" departLane="best" type="veh_passenger"/>
    <trip id="veh20" depart="142.44" from="421760949" to="1116291574#0" departLane="best" type="veh_passenger"/>
    <trip id="veh21" depart="149.56" from="-963864107" to="770771941#0" departLane="best" type="veh_passenger" departSpeed="max"/>
    <trip id="veh22" depart="156.68" from="513490801#0" to="421761553#0" departLane="best" type="veh_passenger" departSpeed="max"/>
    <trip id="veh23" depart="163.81" from="1262800969" to="1049983327#0" departLane="best" type="veh_passenger"/>
    <trip id="veh24" depart="170.93" from="427906758" to="-99660246#2" departLane="best" type="veh_passenger" departSpeed="max"/>
    <trip id="veh25" depart="178.05" from="-428073486" to="402083657#0" departLane="best" type="veh_passenger"/>
    <trip id="veh26" depart="185.17" from="99660246#0" to="428073492" departLane="best" type="veh_passenger" departSpeed="max"/>
    <trip id="veh27" depart="192.29" from="513503501#0" to="428073498#0" departLane="best" type="veh_passenger"/>
    <trip id="veh28" depart="199.42" from="1262800969" to="513238692" departLane="best" type="veh_passenger"/>
    <trip id="veh29" depart="206.54" from="6330434" to="1116291572#0" departLane="best" type="veh_passenger" departSpeed="max"/>
    <trip id="veh30" depart="213.66" from="428073492" to="-55480933#1" departLane="best" type="veh_passenger"/>
    <trip id="veh31" depart="220.78" from="243441994#0" to="513238692" departLane="best" type="veh_passenger"/>
    <trip id="veh32" depart="227.90" from="55480933#0" to="428073498#0" departLane="best" type="veh_passenger"/>
    <trip id="veh33" depart="235.03" from="-425272689#3" to="749999285" departLane="best" type="veh_passenger" departSpeed="max"/>
    <trip id="veh34" depart="242.15" from="402083655#0" to="-427906759#2" departLane="best" type="veh_passenger"/>
    <trip id="veh35" depart="249.27" from="6330434" to="770771941#0" departLane="best" type="veh_passenger" departSpeed="max"/>
    <trip id="veh36" depart="256.39" from="-428073498#1" to="427906922#3" departLane="best" type="veh_passenger" departSpeed="max"/>
    <trip id="veh37" depart="263.51" from="-428073486" to="513503509#0" departLane="best" type="veh_passenger"/>
    <trip id="veh38" depart="270.64" from="427906928#0" to="428073498#0" departLane="best" type="veh_passenger"/>
    <trip id="veh39" depart="277.76" from="427906759#0" to="-983211894#1" departLane="best" type="veh_passenger" departSpeed="max"/>
    <trip id="veh40" depart="284.88" from="451954734#0" to="513503502" departLane="best" type="veh_passenger"/>
    <trip id="veh41" depart="292.00" from="-775139011#2" to="1262800969" departLane="best" type="veh_passenger"/>
    <trip id="veh42" depart="299.12" from="99660246#0" to="513238699" departLane="best" type="veh_passenger" departSpeed="max"/>
    <trip id="veh43" depart="306.25" from="427906792" to="427906928#0" departLane="best" type="veh_passenger"/>
    <trip id="veh44" depart="313.37" from="-513238731" to="1049983327#0" departLane="best" type="veh_passenger"/>
    <trip id="veh45" depart="320.49" from="425272688#0" to="428073554#0" departLane="best" type="veh_passenger" departSpeed="max"/>
    <trip id="veh46" depart="327.61" from="-963864107" to="-99660246#2" departLane="best" type="veh_passenger" departSpeed="max"/>
    <trip id="veh47" depart="334.74" from="-963864107" to="749999285" departLane="best" type="veh_passenger" departSpeed="max"/>
    <trip id="veh48" depart="341.86" from="1058885032" to="513238724" departLane="best" type="veh_passenger"/>
    <trip id="veh49" depart="348.98" from="87177193#0" to="428073532" departLane="best" type="veh_passenger"/>
    <trip id="veh50" depart="356.10" from="427906759#0" to="427906779" departLane="best" type="veh_passenger" departSpeed="max"/>
    <trip id="veh51" depart="363.22" from="1116291571#0" to="749999285" departLane="best" type="veh_passenger"/>
    <trip id="veh52" depart="370.35" from="99660246#0" to="6483786#0" departLane="best" type="veh_passenger" departSpeed="max"/>
    <trip id="veh53" depart="377.47" from="987689372#0" to="749999285" departLane="best" type="veh_passenger" departSpeed="max"/>
    <trip id="veh54" depart="384.59" from="428073484#0" to="-983211894#1" departLane="best" type="veh_passenger" departSpeed="max"/>
    <trip id="veh55" depart="391.71" from="427906758" to="-427906759#2" departLane="best" type="veh_passenger" departSpeed="max"/>
    <trip id="veh56" depart="398.83" from="427906924#0" to="427906727#0" departLane="best" type="veh_passenger"/>
    <trip id="veh57" depart="405.96" from="-6400142#1" to="1165641298" departLane="best" type="veh_passenger"/>
    <trip id="veh58" depart="413.08" from="987689372#0" to="428073550#0" departLane="best" type="veh_passenger" departSpeed="max"/>
    <trip id="veh59" depart="420.20" from="454826562" to="513503507" departLane="best" type="veh_passenger" departSpeed="max"/>
    <trip id="veh60" depart="427.32" from="-6422057#6" to="87177195#0" departLane="best" type="veh_passenger" departSpeed="max"/>
    <trip id="veh61" depart="434.44" from="-428073498#1" to="-6393971#3" departLane="best" type="veh_passenger" departSpeed="max"/>
    <trip id="veh62" depart="441.57" from="513238707" to="513238727#0" departLane="best" type="veh_passenger"/>
    <trip id="veh63" depart="448.69" from="1058885032" to="-428073490" departLane="best" type="veh_passenger"/>
    <trip id="veh64" depart="455.81" from="6400142#0" to="1049983327#0" departLane="best" type="veh_passenger"/>
    <trip id="veh65" depart="462.93" from="513238707" to="428073554#0" departLane="best" type="veh_passenger"/>
    <trip id="veh66" depart="470.05" from="428073550#0" to="750007896#0" departLane="best" type="veh_passenger"/>
    <trip id="veh67" depart="477.18" from="-963864107" to="513490829#0" departLane="best" type="veh_passenger" departSpeed="max"/>
    <trip id="veh68" depart="484.30" from="513490801#0" to="1165641298" departLane="best" type="veh_passenger" departSpeed="max"/>
    <trip id="veh69" depart="491.42" from="421760949" to="513503508#0" departLane="best" type="veh_passenger"/>
    <trip id="veh70" depart="498.54" from="427906729#0" to="-513238732#1" departLane="best" type="veh_passenger"/>
    <trip id="veh71" depart="505.66" from="513490801#0" to="-1063364332" departLane="best" type="veh_passenger" departSpeed="max"/>
    <trip id="veh72" depart="512.79" from="513490801#0" to="750007899" departLane="best" type="veh_passenger" departSpeed="max"/>
    <trip id="veh73" depart="519.91" from="-513490827#2" to="-428073490" departLane="best" type="veh_passenger" departSpeed="max"/>
    <trip id="veh74" depart="527.03" from="-513238726" to="428073498#0" departLane="best" type="veh_passenger"/>
    <trip id="veh75" depart="534.15" from="1295951544" to="428073554#0" departLane="best" type="veh_passenger" departSpeed="max"/>
    <trip id="veh76" depart="541.27" from="513238732#0" to="1116291572#0" departLane="best" type="veh_passenger" departSpeed="max"/>
    <trip id="veh77" depart="548.40" from="428073484#0" to="749999285" departLane="best" type="veh_passenger" departSpeed="max"/>
    <trip id="veh78" depart="555.52" from="-1063364330" to="513503511" departLane="best" type="veh_passenger"/>
    <trip id="veh79" depart="562.64" from="513238732#0" to="1116291571#0" departLane="best" type="veh_passenger" departSpeed="max"/>
    <trip id="veh80" depart="569.76" from="513503511" to="428073498#0" departLane="best" type="veh_passenger"/>
    <trip id="veh81" depart="576.88" from="402083655#0" to="749999285" departLane="best" type="veh_passenger"/>
    <trip id="veh82" depart="584.01" from="663406352" to="-775139011#2" departLane="best" type="veh_passenger"/>
    <trip id="veh83" depart="591.13" from="1116291571#0" to="-428073490" departLane="best" type="veh_passenger"/>
    <trip id="veh84" depart="598.25" from="427906758" to="451954734#0" departLane="best" type="veh_passenger" departSpeed="max"/>
    <trip id="veh85" depart="605.37" from="-622484162#7" to="749999285" departLane="best" type="veh_passenger"/>
    <trip id="veh86" depart="612.49" from="592232752#0" to="-428073490" departLane="best" type="veh_passenger"/>
    <trip id="veh87" depart="619.62" from="987689372#0" to="1116291575" departLane="best" type="veh_passenger" departSpeed="max"/>
    <trip id="veh88" depart="626.74" from="513490801#0" to="425272687#1" departLane="best" type="veh_passenger" departSpeed="max"/>
    <trip id="veh89" depart="633.86" from="87177193#0" to="-428073490" departLane="best" type="veh_passenger"/>
    <trip id="veh90" depart="640.98" from="987689372#0" to="-55480933#1" departLane="best" type="veh_passenger" departSpeed="max"/>
    <trip id="veh91" depart="648.10" from="987689372#0" to="1116291574#0" departLane="best" type="veh_passenger" departSpeed="max"/>
    <trip id="veh92" depart="655.23" from="427906757#0" to="428073532" departLane="best" type="veh_passenger"/>
    <trip id="veh93" depart="662.35" from="1116291574#0" to="513490827#0" departLane="best" type="veh_passenger"/>
    <trip id="veh94" depart="669.47" from="-1063364330" to="749999285" departLane="best" type="veh_passenger"/>
    <trip id="veh95" depart="676.59" from="451954734#0" to="513503501#0" departLane="best" type="veh_passenger"/>
    <trip id="veh96" depart="683.71" from="425272689#0" to="-427906759#2" departLane="best" type="veh_passenger"/>
    <trip id="veh97" depart="690.84" from="513490801#0" to="132147575#0" departLane="best" type="veh_passenger" departSpeed="max"/>
    <trip id="veh98" depart="697.96" from="513503508#0" to="1165641298" departLane="best" type="veh_passenger"/>
    <trip id="veh99" depart="705.08" from="427906758" to="1165641298" departLane="best" type="veh_passenger" departSpeed="max"/>
    <trip id="veh100" depart="712.20" from="664710840" to="428073554#0" departLane="best" type="veh_passenger"/>
    <trip id="veh101" depart="719.32" from="243441994#0" to="428073498#0" departLane="best" type="veh_passenger"/>
    <trip id="veh102" depart="726.45" from="-1063364330" to="1116291575" departLane="best" type="veh_passenger"/>
    <trip id="veh103" depart="733.57" from="427906792" to="-983211894#1" departLane="best" type="veh_passenger"/>
    <trip id="veh104" depart="740.69" from="-428073498#1" to="427906927#0" departLane="best" type="veh_passenger" departSpeed="max"/>
    <trip id="veh105" depart="747.81" from="513238732#0" to="243441994#0" departLane="best" type="veh_passenger" departSpeed="max"/>
    <trip id="veh106" depart="754.93" from="513490801#0" to="1049983327#0" departLane="best" type="veh_passenger" departSpeed="max"/>
    <trip id="veh107" depart="762.06" from="1116291571#0" to="427906922#0" departLane="best" type="veh_passenger"/>
    <trip id="veh108" depart="769.18" from="-663406352" to="513490827#0" departLane="best" type="veh_passenger"/>
    <trip id="veh109" depart="776.30" from="428073484#0" to="1049983327#0" departLane="best" type="veh_passenger" departSpeed="max"/>
    <trip id="veh110" depart="783.42" from="513490801#0" to="-1063364332" departLane="best" type="veh_passenger" departSpeed="max"/>
    <trip id="veh111" depart="790.54" from="531669522" to="513503511" departLane="best" type="veh_passenger" departSpeed="max"/>
    <trip id="veh112" depart="797.67" from="-513238724" to="427906727#0" departLane="best" type="veh_passenger"/>
    <trip id="veh113" depart="804.79" from="428073550#0" to="-427906757#1" departLane="best" type="veh_passenger"/>
    <trip id="veh114" depart="811.91" from="6400142#0" to="428073554#0" departLane="best" type="veh_passenger"/>
    <trip id="veh115" depart="819.03" from="513503508#0" to="427906924#0" departLane="best" type="veh_passenger"/>
    <trip id="veh116" depart="826.15" from="6450855#3" to="513503507" departLane="best" type="veh_passenger"/>
    <trip id="veh117" depart="833.28" from="1116291571#0" to="513238692" departLane="best" type="veh_passenger"/>
    <trip id="veh118" depart="840.40" from="513238730" to="1116291575" departLane="best" type="veh_passenger"/>
    <trip id="veh119" depart="847.52" from="-428073498#1" to="1116291575" departLane="best" type="veh_passenger" departSpeed="max"/>
    <trip id="veh120" depart="854.64" from="-983211894#1" to="513490827#0" departLane="best" type="veh_passenger"/>
    <trip id="veh121" depart="861.76" from="513503504#0" to="-427906759#2" departLane="best" type="veh_passenger"/>
    <trip id="veh122" depart="868.89" from="427906759#0" to="428073498#0" departLane="best" type="veh_passenger" departSpeed="max"/>
    <trip id="veh123" depart="876.01" from="427906759#0" to="-675401896#1" departLane="best" type="veh_passenger" departSpeed="max"/>
    <trip id="veh124" depart="883.13" from="427906759#0" to="749999285" departLane="best" type="veh_passenger" departSpeed="max"/>
    <trip id="veh125" depart="890.25" from="513238704" to="513490827#0" departLane="best" type="veh_passenger" departSpeed="max"/>
    <trip id="veh126" depart="897.37" from="427906757#0" to="-1063364332" departLane="best" type="veh_passenger"/>
    <trip id="veh127" depart="904.50" from="425272688#0" to="513503508#0" departLane="best" type="veh_passenger" departSpeed="max"/>
    <trip id="veh128" depart="911.62" from="427906759#0" to="513503507" departLane="best" type="veh_passenger" departSpeed="max"/>
    <trip id="veh129" depart="918.74" from="454826562" to="428073554#0" departLane="best" type="veh_passenger" departSpeed="max"/>
    <trip id="veh130" depart="925.86" from="-963864107" to="-99660246#2" departLane="best" type="veh_passenger" departSpeed="max"/>
    <trip id="veh131" depart="932.99" from="425272688#0" to="513238728" departLane="best" type="veh_passenger" departSpeed="max"/>
    <trip id="veh132" depart="940.11" from="513238729" to="-1295951544" departLane="best" type="veh_passenger"/>
    <trip id="veh133" depart="947.23" from="427906758" to="428073498#0" departLane="best" type="veh_passenger" departSpeed="max"/>
    <trip id="veh134" depart="954.35" from="-425272689#3" to="513238696" departLane="best" type="veh_passenger" departSpeed="max"/>
    <trip id="veh135" depart="961.47" from="-963864107" to="132147575#0" departLane="best" type="veh_passenger" departSpeed="max"/>
    <trip id="veh136" depart="968.60" from="531669522" to="6483786#0" departLane="best" type="veh_passenger" departSpeed="max"/>
    <trip id="veh137" depart="975.72" from="-425272689#3" to="428073498#0" departLane="best" type="veh_passenger" departSpeed="max"/>
    <trip id="veh138" depart="982.84" from="513490801#0" to="545416269#0" departLane="best" type="veh_passenger" departSpeed="max"/>
    <trip id="veh139" depart="989.96" from="513490801#0" to="513503508#0" departLane="best" type="veh_passenger" departSpeed="max"/>
    <trip id="veh140" depart="997.08" from="-425272689#3" to="-513238730" departLane="best" type="veh_passenger" departSpeed="max"/>
    <trip id="veh141" depart="1004.21" from="-513490827#2" to="513238725" departLane="best" type="veh_passenger" departSpeed="max"/>
    <trip id="veh142" depart="1011.33" from="513238692" to="-99660246#2" departLane="best" type="veh_passenger"/>
    <trip id="veh143" depart="1018.45" from="-6449608#2" to="428073554#0" departLane="best" type="veh_passenger" departSpeed="max"/>
    <trip id="veh144" depart="1025.57" from="513503512" to="-428073490" departLane="best" type="veh_passenger"/>
    <trip id="veh145" depart="1032.69" from="622462903" to="880540177" departLane="best" type="veh_passenger" departSpeed="max"/>
    <trip id="veh146" depart="1039.82" from="-513238726" to="-1295951544" departLane="best" type="veh_passenger"/>
    <trip id="veh147" depart="1046.94" from="987689372#0" to="421761553#0" departLane="best" type="veh_passenger" departSpeed="max"/>
    <trip id="veh148" depart="1054.06" from="513503507" to="-427906759#2" departLane="best" type="veh_passenger"/>
    <trip id="veh149" depart="1061.18" from="-513238722#1" to="513503511" departLane="best" type="veh_passenger"/>
    <trip id="veh150" depart="1068.30" from="427906774" to="30615048" departLane="best" type="veh_passenger"/>
    <trip id="veh151" depart="1075.43" from="1262800969" to="622484162#1" departLane="best" type="veh_passenger"/>
    <trip id="veh152" depart="1082.55" from="451954734#0" to="427906922#3" departLane="best" type="veh_passenger"/>
    <trip id="veh153" depart="1089.67" from="427906927#0" to="428073554#0" departLane="best" type="veh_passenger"/>
    <trip id="veh154" depart="1096.79" from="427906753#0" to="-1295951544" departLane="best" type="veh_passenger"/>
    <trip id="veh155" depart="1103.91" from="-963864107" to="55481045" departLane="best" type="veh_passenger" departSpeed="max"/>
    <trip id="veh156" depart="1111.04" from="513503503" to="1116291575" departLane="best" type="veh_passenger"/>
    <trip id="veh157" depart="1118.16" from="-1222672054#1" to="775139011#0" departLane="best" type="veh_passenger"/>
    <trip id="veh158" depart="1125.28" from="-428073498#1" to="513503501#0" departLane="best" type="veh_passenger" departSpeed="max"/>
    <trip id="veh159" depart="1132.40" from="428073484#0" to="513503509#0" departLane="best" type="veh_passenger" departSpeed="max"/>
    <trip id="veh160" depart="1139.52" from="513503501#0" to="513238696" departLane="best" type="veh_passenger"/>
    <trip id="veh161" depart="1146.65" from="428073484#0" to="55481044" departLane="best" type="veh_passenger" departSpeed="max"/>
    <trip id="veh162" depart="1153.77" from="-451954734#2" to="-99660246#2" departLane="best" type="veh_passenger"/>
    <trip id="veh163" depart="1160.89" from="513238699" to="427906792" departLane="best" type="veh_passenger"/>
    <trip id="veh164" depart="1168.01" from="428073561" to="427906727#0" departLane="best" type="veh_passenger" departSpeed="max"/>
    <trip id="veh165" depart="1175.13" from="513503512" to="132147575#0" departLane="best" type="veh_passenger"/>
    <trip id="veh166" depart="1182.26" from="513503503" to="1116291575" departLane="best" type="veh_passenger"/>
    <trip id="veh167" depart="1189.38" from="1116291572#0" to="-428073490" departLane="best" type="veh_passenger"/>
    <trip id="veh168" depart="1196.50" from="-663406349" to="-428073490" departLane="best" type="veh_passenger"/>
    <trip id="veh169" depart="1203.62" from="428073561" to="513503510#0" departLane="best" type="veh_passenger" departSpeed="max"/>
    <trip id="veh170" depart="1210.74" from="-6483786#2" to="-99660246#2" departLane="best" type="veh_passenger" departSpeed="max"/>
    <trip id="veh171" depart="1217.87" from="428073484#0" to="513503501#0" departLane="best" type="veh_passenger" departSpeed="max"/>
    <trip id="veh172" depart="1224.99" from="987689372#0" to="428073485" departLane="best" type="veh_passenger" departSpeed="max"/>
    <trip id="veh173" depart="1232.11" from="1295951544" to="-428073490" departLane="best" type="veh_passenger" departSpeed="max"/>
    <trip id="veh174" depart="1239.23" from="-663406352" to="1049983327#0" departLane="best" type="veh_passenger"/>
    <trip id="veh175" depart="1246.35" from="-6483786#2" to="-1285047732" departLane="best" type="veh_passenger" departSpeed="max"/>
    <trip id="veh176" depart="1253.48" from="428073561" to="1116291575" departLane="best" type="veh_passenger" departSpeed="max"/>
    <trip id="veh177" depart="1260.60" from="987689372#0" to="428073498#0" departLane="best" type="veh_passenger" departSpeed="max"/>
    <trip id="veh178" depart="1267.72" from="513503502" to="-451954734#2" departLane="best" type="veh_passenger"/>
    <trip id="veh179" depart="1274.84" from="6330434" to="428073532" departLane="best" type="veh_passenger" departSpeed="max"/>
    <trip id="veh180" depart="1281.96" from="427906927#0" to="427906738#0" departLane="best" type="veh_passenger"/>
    <trip id="veh181" depart="1289.09" from="-6483786#2" to="-427906759#2" departLane="best" type="veh_passenger" departSpeed="max"/>
    <trip id="veh182" depart="1296.21" from="87177195#0" to="427906922#3" departLane="best" type="veh_passenger"/>
    <trip id="veh183" depart="1303.33" from="-427906757#1" to="-513238729" departLane="best" type="veh_passenger"/>
    <trip id="veh184" depart="1310.45" from="99660246#0" to="-428073490" departLane="best" type="veh_passenger" departSpeed="max"/>
    <trip id="veh185" depart="1317.57" from="55480933#0" to="428073554#0" departLane="best" type="veh_passenger"/>
    <trip id="veh186" depart="1324.70" from="428073550#0" to="427906753#0" departLane="best" type="veh_passenger"/>
    <trip id="veh187" depart="1331.82" from="513238728" to="428073554#0" departLane="best" type="veh_passenger"/>
    <trip id="veh188" depart="1338.94" from="-963864107" to="-983211894#1" departLane="best" type="veh_passenger" departSpeed="max"/>
    <trip id="veh189" depart="1346.06" from="513490801#0" to="-513238732#1" departLane="best" type="veh_passenger" departSpeed="max"/>
    <trip id="veh190" depart="1353.18" from="-6449608#2" to="-427906759#2" departLane="best" type="veh_passenger" departSpeed="max"/>
    <trip id="veh191" depart="1360.31" from="-1063364330" to="427906753#0" departLane="best" type="veh_passenger"/>
    <trip id="veh192" depart="1367.43" from="513238707" to="1165641298" departLane="best" type="veh_passenger"/>
    <trip id="veh193" depart="1374.55" from="-983211894#1" to="513490827#0" departLane="best" type="veh_passenger"/>
    <trip id="veh194" depart="1381.67" from="513503503" to="427906757#0" departLane="best" type="veh_passenger"/>
    <trip id="veh195" depart="1388.79" from="513503501#0" to="749999285" departLane="best" type="veh_passenger"/>
    <trip id="veh196" depart="1395.92" from="592232752#0" to="451954734#0" departLane="best" type="veh_passenger"/>
    <trip id="veh197" depart="1403.04" from="513490801#0" to="750007896#0" departLane="best" type="veh_passenger" departSpeed="max"/>
    <trip id="veh198" depart="1410.16" from="427906759#0" to="428073498#0" departLane="best" type="veh_passenger" departSpeed="max"/>
    <trip id="veh199" depart="1417.28" from="513490801#0" to="749999285" departLane="best" type="veh_passenger" departSpeed="max"/>
    <trip id="veh200" depart="1424.40" from="622484162#1" to="-427906759#2" departLane="best" type="veh_passenger"/>
    <trip id="veh201" depart="1431.53" from="513503512" to="428073498#0" departLane="best" type="veh_passenger"/>
    <trip id="veh202" depart="1438.65" from="1295951544" to="-428073490" departLane="best" type="veh_passenger" departSpeed="max"/>
    <trip id="veh203" depart="1445.77" from="428073484#0" to="-427906759#2" departLane="best" type="veh_passenger" departSpeed="max"/>
    <trip id="veh204" depart="1452.89" from="-427906727#1" to="427906728#0" departLane="best" type="veh_passenger" departSpeed="max"/>
    <trip id="veh205" depart="1460.01" from="421760949" to="1058885032" departLane="best" type="veh_passenger"/>
    <trip id="veh206" depart="1467.14" from="513490801#0" to="1116291574#0" departLane="best" type="veh_passenger" departSpeed="max"/>
    <trip id="veh207" depart="1474.26" from="513238704" to="48995747#0" departLane="best" type="veh_passenger" departSpeed="max"/>
    <trip id="veh208" depart="1481.38" from="425272688#0" to="243441994#0" departLane="best" type="veh_passenger" departSpeed="max"/>
    <trip id="veh209" depart="1488.50" from="427906924#0" to="1262800969" departLane="best" type="veh_passenger"/>
    <trip id="veh210" depart="1495.62" from="454826562" to="427906727#0" departLane="best" type="veh_passenger" departSpeed="max"/>
    <trip id="veh211" depart="1502.75" from="-6483786#2" to="30615045" departLane="best" type="veh_passenger" departSpeed="max"/>
    <trip id="veh212" depart="1509.87" from="531669522" to="451954734#0" departLane="best" type="veh_passenger" departSpeed="max"/>
    <trip id="veh213" depart="1516.99" from="454826562" to="749999285" departLane="best" type="veh_passenger" departSpeed="max"/>
    <trip id="veh214" depart="1524.11" from="513238725" to="1049983327#0" departLane="best" type="veh_passenger"/>
    <trip id="veh215" depart="1531.24" from="-6422057#6" to="428073498#0" departLane="best" type="veh_passenger" departSpeed="max"/>
    <trip id="veh216" depart="1538.36" from="99660246#0" to="749999285" departLane="best" type="veh_passenger" departSpeed="max"/>
    <trip id="veh217" depart="1545.48" from="427906926#0" to="-428073490" departLane="best" type="veh_passenger"/>
    <trip id="veh218" depart="1552.60" from="1295951544" to="6483786#0" departLane="best" type="veh_passenger" departSpeed="max"/>
    <trip id="veh219" depart="1559.72" from="987689372#0" to="1049983327#0" departLane="best" type="veh_passenger" departSpeed="max"/>
    <trip id="veh220" depart="1566.85" from="454826562" to="421760949" departLane="best" type="veh_passenger" departSpeed="max"/>
    <trip id="veh221" depart="1573.97" from="750007899" to="427906926#0" departLane="best" type="veh_passenger"/>
    <trip id="veh222" depart="1581.09" from="1295951544" to="55481044" departLane="best" type="veh_passenger" departSpeed="max"/>
    <trip id="veh223" depart="1588.21" from="427906759#0" to="750007896#0" departLane="best" type="veh_passenger" departSpeed="max"/>
    <trip id="veh224" depart="1595.33" from="1295951544" to="1165641298" departLane="best" type="veh_passenger" departSpeed="max"/>
    <trip id="veh225" depart="1602.46" from="513238704" to="968748784" departLane="best" type="veh_passenger" departSpeed="max"/>
    <trip id="veh226" depart="1609.58" from="428073484#0" to="-513238729" departLane="best" type="veh_passenger" departSpeed="max"/>
    <trip id="veh227" depart="1616.70" from="470492322#0" to="428073498#0" departLane="best" type="veh_passenger"/>
    <trip id="veh228" depart="1623.82" from="-6483786#2" to="513490827#0" departLane="best" type="veh_passenger" departSpeed="max"/>
    <trip id="veh229" depart="1630.94" from="513238696" to="1049983327#0" departLane="best" type="veh_passenger"/>