<?xml version="1.0" encoding="UTF-8"?>

<!-- generated on 2026-05-27 19:43:21.328601 by Eclipse SUMO routeSampler.py v1.26.0
<configuration>
    <route-files value="route_pool_calibrated.rou.xml"/>
    <edgedata-files value="real_world_counts_calibrated.xml"/>
    <output-file value="harvard_simulation_calibrated.rou.xml"/>
</configuration>
-->

<routes xmlns:xsi="http://www.w3.org/2001/XMLSchema-instance" xsi:noNamespaceSchemaLocation="http://sumo.dlr.de/xsd/routes_file.xsd">
<!-- begin="0.0" end="3600.0" -->
    <vehicle id="0" depart="0.17">
        <route edges="6393971#0 775139011#0 770771941#0 513503504#0 513503503 513503502 513503501#0 968748784 425272687#1 1049983327#0"/>
    </vehicle>
    <vehicle id="1" depart="0.24">
        <route edges="1295951544 -1295951544"/>
    </vehicle>
    <vehicle id="2" depart="0.40">
        <route edges="428073532 55481045 623055162 513238696 513238699 1058885032 87177193#0 427906927#0 -402083657#1 -513238728 -513238729 6450855#3 6483786#0"/>
    </vehicle>
    <vehicle id="3" depart="0.45">
        <route edges="-428073498#1 -1063364330 -428073486 -983211894#1 -428073485 -1063364332 -428073490 428073484#0 428073492 428073485 421760949 428073494#0 421760950 428073498#0"/>
    </vehicle>
    <vehicle id="4" depart="0.70">
        <route edges="428073550#0 428073494#0 421760950 428073498#0"/>
    </vehicle>
    <vehicle id="5" depart="0.87">
        <route edges="513238692 55481044 664710840 428073532 55481045 623055162 513238696 513238699 1058885032 87177193#0 427906927#0 -402083657#1 -513238728 -513238729 -513238730 -513238731 -513238732#1"/>
    </vehicle>
    <vehicle id="6" depart="0.88">
        <route edges="1225324171#0 243441994#0 427906924#0 427906926#0 513503512 622484162#1 -99660246#2"/>
    </vehicle>
    <vehicle id="7" depart="1.11">
        <route edges="987689372#0 428073550#0 48995747#0 428073554#0"/>
    </vehicle>
    <vehicle id="8" depart="1.24">
        <route edges="987689372#0 428073550#0 428073494#0 421760950"/>
    </vehicle>
    <vehicle id="9" depart="1.84">
        <route edges="-428073498#1 -1063364330 -428073486 55481045 623055162 513238696 513238699 1058885032 87177193#0 427906927#0 545416269#0 513238725 513238724 663406352"/>
    </vehicle>
    <vehicle id="10" depart="3.57">
        <route edges="425272688#0 425272689#0 108384167#0 -6393971#3"/>
    </vehicle>
    <vehicle id="11" depart="3.93">
        <route edges="-1063364332 -428073490 428073484#0 428073492 428073485 421760949 55481045 623055162 513238696 513238699 1058885032 87177193#0 427906927#0 -402083657#1 -513238728 -513238729 -6450855#2 6449608#0"/>
    </vehicle>
    <vehicle id="12" depart="4.47">
        <route edges="427906774 427906924#0 427906926#0 513503512 622484162#1 -99660246#2"/>
    </vehicle>
    <vehicle id="13" depart="5.21">
        <route edges="1116291573 1116291572#0 1116291571#0 513238722#0 55480933#0 451954734#0 427906753#0 1262800969 169303084#0 1165641298"/>
    </vehicle>
    <vehicle id="14" depart="5.22">
        <route edges="6393971#0 775139011#0 770771941#0 387201733#0 513503511 513238727#0 427906923 513503510#0 513503509#0"/>
    </vehicle>
    <vehicle id="15" depart="5.27">
        <route edges="427906774 427906924#0 427906926#0 513503512 622484162#1 -99660246#2"/>
    </vehicle>
    <vehicle id="16" depart="5.95">
        <route edges="513490801#0 1295951547 -1295951544"/>
    </vehicle>
    <vehicle id="17" depart="6.14">
        <route edges="1295951544 427906779 427906792 243441994#0 427906922#0 427906922#3"/>
    </vehicle>
    <vehicle id="18" depart="7.06">
        <route edges="6393971#0 775139011#0 770771941#0 513503504#0 513503503 513503502 513503501#0 427906922#0 -1222672055#1 1225324172"/>
    </vehicle>
    <vehicle id="19" depart="7.41">
        <route edges="513490801#0 427906922#0 427906922#3"/>
    </vehicle>
    <vehicle id="20" depart="7.49">
        <route edges="427906758 592232752#0 169303084#0 1165641298"/>
    </vehicle>
    <vehicle id="21" depart="7.83">
        <route edges="-428073498#1 -1063364330 -428073486 55481045 623055162 513238696 513238699 1058885032 87177193#0 427906927#0 -402083657#1 -513238728 -513238729 -513238730"/>
    </vehicle>
    <vehicle id="22" depart="8.98">
        <route edges="513490801#0 427906922#0 427906922#3"/>
    </vehicle>
    <vehicle id="23" depart="9.62">
        <route edges="-428073498#1 -1063364330 -428073486 55481045 623055162 513238696 513238699 1058885032 87177193#0 427906927#0 -402083657#1 -513238728 -513238729 -513238730 -513238731 -513238732#1"/>
    </vehicle>
    <vehicle id="24" depart="9.82">
        <route edges="427906758 592232752#0 421761553#0 749999285"/>
    </vehicle>
    <vehicle id="25" depart="10.56">
        <route edges="427906758 592232752#0 55481042 513238707 513238692 55481044 664710840 428073532 428073494#0 421760950 428073498#0"/>
    </vehicle>
    <vehicle id="26" depart="10.73">
        <route edges="987689372#0 428073550#0 -983211894#1 -428073485 -1063364332 -428073490"/>
    </vehicle>
    <vehicle id="27" depart="11.20">
        <route edges="987689372#0 428073550#0 55481045 623055162 513238696 513238699 1058885032 87177193#0 427906927#0 -402083657#1 -513238728 -513238729 -513238730 -513238731 -513238732#1"/>
    </vehicle>
    <vehicle id="28" depart="11.69">
        <route edges="531669522-AddedOffRampEdge 6334476#0 55481044 664710840 428073532 55481045 623055162 513238696 513238699 1058885032 750007900 750007899 -427906751#2 -451954734#2 -55480933#1 -513238722#1 1116291574#0 1116291575"/>
    </vehicle>
    <vehicle id="29" depart="11.78">
        <route edges="425272688#0 470492322#0 738584326 427906774 427906922#0 427906922#3"/>
    </vehicle>
    <vehicle id="30" depart="11.81">
        <route edges="425272688#0 470492322#0 738584326 427906774 427906924#0 427906926#0 513503512 387201733#0 513503511 513238727#0 427906923 427906928#0 87177195#0 750007896#0 55481042 513238707 513238692 55481044 664710840 428073532 428073494#0 421760950 428073498#0"/>
    </vehicle>
    <vehicle id="31" depart="11.94">
        <route edges="-963864107 427906728#0 402083655#0 427906729#0 513238727#0 427906923 545416269#0 513238725 513238724 663406352 6400142#0 513238722#0 55480933#0 451954734#0 427906753#0"/>
    </vehicle>
    <vehicle id="32" depart="12.49">
        <route edges="428073484#0 428073492 428073485 421760949 55481045 623055162 513238696 513238699 1058885032 750007900 750007899 -427906751#2 -427906757#1 -427906759#2"/>
    </vehicle>
    <vehicle id="33" depart="12.84">
        <route edges="427906928#0 87177195#0 750007896#0 87177193#0 427906927#0 -402083657#1 -513238728 -513238729 -6450855#2 6449608#0"/>
    </vehicle>
    <vehicle id="34" depart="13.02">
        <route edges="987689372#0 428073550#0 55481045 623055162 513238696 513238699 1058885032 87177193#0 427906927#0 -402083657#1 -513238728 -513238729 513238729"/>
    </vehicle>
    <vehicle id="35" depart="13.60">
        <route edges="-1222672055#1 1225324172 1225324171#0 243441994#0 1295951547 -1295951544"/>
    </vehicle>
    <vehicle id="36" depart="14.81">
        <route edges="425272688#0 470492322#0 738584326 427906774 427906924#0 427906926#0 513503512 387201733#0 513503511 513238727#0 427906923 427906928#0 87177195#0 750007896#0 55481042 513238707 513238692 55481044 664710840 428073532 428073494#0 421760950 428073498#0"/>
    </vehicle>
    <vehicle id="37" depart="15.39">
        <route edges="513503503 513503502 513503501#0 427906924#0 427906926#0 513503512 -770771941#5 -775139011#2 -6393971#3"/>
    </vehicle>
    <vehicle id="38" depart="15.73">
        <route edges="6393971#0 775139011#0 770771941#0 513503504#0 513503503 513503502 513503501#0 968748784 425272687#1 1049983327#0"/>
    </vehicle>
    <vehicle id="39" depart="16.13">
        <route edges="-427906727#1 -675401896#1 -427906724#1 513238727#0 427906923 427906928#0 87177195#0 750007896#0 55481042 513238707 513238692 55481044 664710840 428073532 -983211894#1 -428073485 -1063364332 -428073490"/>
    </vehicle>
    <vehicle id="40" depart="16.56">
        <route edges="427906928#0 87177195#0 750007896#0 87177193#0 427906927#0 -402083657#1 -513238728 -513238729 -6450855#2 6449608#0"/>
    </vehicle>
    <vehicle id="41" depart="16.60">
        <route edges="513238696 513238699 1058885032 55481042 513238707 513238692 55481044 664710840 428073532 48995747#0 428073554#0"/>
    </vehicle>
    <vehicle id="42" depart="16.76">
        <route edges="-622484162#7 513503504#0 513503503 513503502 513503501#0 968748784 425272687#1 1049983327#0"/>
    </vehicle>
    <vehicle id="43" depart="19.25">
        <route edges="428073484#0 428073492 428073485 421760949 55481045 623055162 513238696 513238699 1058885032 87177193#0 427906927#0 -402083657#1 -513238728 -513238729 -513238730 -513238731 -513238732#1"/>
    </vehicle>
    <vehicle id="44" depart="19.29">
        <route edges="427906928#0 87177195#0 750007896#0 87177193#0 427906927#0 -402083657#1 -513238728 -513238729 -6450855#2 6449608#0"/>
    </vehicle>
    <vehicle id="45" depart="20.05">
        <route edges="513490801#0 427906922#0 427906922#3"/>
    </vehicle>
    <vehicle id="46" depart="20.24">
        <route edges="427906759#0 427906757#0 427906753#0 1262800969 55481042 513238707 513238692 55481044 664710840 428073532 428073494#0 421760950 428073498#0"/>
    </vehicle>
    <vehicle id="47" depart="20.43">
        <route edges="428073484#0 428073492 428073485 421760949 48995747#0 428073554#0"/>
    </vehicle>
    <vehicle id="48" depart="20.48">
        <route edges="1116291572#0 1116291571#0 -6400142#1 -663406352 -513238724 -663406349 -513238726 -402083657#1 -513238728 -513238729 -6450855#2 6449608#0"/>
    </vehicle>
    <vehicle id="49" depart="20.71">
        <route edges="427906758 592232752#0 55481042 513238707 513238692 55481044 664710840 428073532 55481045 132147575#0"/>
    </vehicle>
    <vehicle id="50" depart="21.03">
        <route edges="531669522-AddedOffRampEdge 6334476#0 55481044 664710840 428073532 55481045 623055162 513238696 513238699 1058885032 87177193#0 427906927#0 -402083657#1 -513238728 -513238729 -513238730 -513238731 -513238732#1"/>
    </vehicle>
    <vehicle id="51" depart="21.30">
        <route edges="-1063364330 -428073486 48995747#0 428073554#0"/>
    </vehicle>
    <vehicle id="52" depart="21.60">
        <route edges="513490801#0 968748784 425272687#1 1049983327#0"/>
    </vehicle>
    <vehicle id="53" depart="21.68">
        <route edges="1295951544 427906779 427906792 243441994#0 427906924#0 427906926#0 513503512 622484162#1 -99660246#2"/>
    </vehicle>
    <vehicle id="54" depart="21.75">
        <route edges="-1222672054#1 1225324172 1225324171#0 243441994#0 968748784 425272687#1 1049983327#0"/>
    </vehicle>
    <vehicle id="55" depart="21.85">
        <route edges="-1063364332 -428073490 428073484#0 428073492 428073485 421760949 55481045 623055162 513238696 513238699 1058885032 87177193#0 427906927#0 -402083657#1 -513238728 -513238729 -6450855#2 6449608#0"/>
    </vehicle>
    <vehicle id="56" depart="22.63">
        <route edges="427906759#0 427906757#0 427906753#0 1262800969 55481042 513238707 513238692 55481044 664710840 428073532 428073494#0 421760950 428073498#0"/>
    </vehicle>
    <vehicle id="57" depart="23.46">
        <route edges="513490801#0 427906922#0 -1222672055#1 -1285047732"/>
    </vehicle>
    <vehicle id="58" depart="23.72">
        <route edges="427906758 592232752#0 87177193#0 427906927#0 -402083657#1 -513238728 -513238729 -6450855#2 6449608#0"/>
    </vehicle>
    <vehicle id="59" depart="24.27">
        <route edges="427906758 592232752#0 55481042 513238707 513238692 55481044 664710840 428073532 -983211894#1 -428073485 -1063364332 -428073490"/>
    </vehicle>
    <vehicle id="60" depart="24.91">
        <route edges="-1063364330 -428073486"/>
    </vehicle>
    <vehicle id="61" depart="25.17">
        <route edges="427906758 592232752#0 87177193#0 427906927#0 -402083657#1 -513238728 -513238729 -513238730 -513238731 -513238732#1 513238732#0 513238731"/>
    </vehicle>
    <vehicle id="62" depart="25.46">
        <route edges="427906758 592232752#0 87177193#0 427906927#0 -402083657#1 -513238728 -513238729 -513238730 -513238731 -513238732#1 513238732#0 513238731"/>
    </vehicle>
    <vehicle id="63" depart="25.51">
        <route edges="-513238730 -513238731 -513238732#1 513238732#0 513238731 513238730 513238729 513238728 402083657#0 545416269#0 513238725 513238724 663406352 6400142#0 513238722#0 55480933#0 451954734#0 427906753#0"/>
    </vehicle>
    <vehicle id="64" depart="25.59">
        <route edges="-963864107 427906728#0 402083655#0 427906729#0 513503508#0 513503507 513503504#0 513503503 513503502 513503501#0 968748784 425272687#1 1049983327#0"/>
    </vehicle>
    <vehicle id="65" depart="25.89">
        <route edges="-425272689#3 470492322#0 738584326 427906774 968748784 425272687#1 1049983327#0"/>
    </vehicle>
    <vehicle id="66" depart="26.18">
        <route edges="770771941#0 513503504#0 513503503 513503502 513503501#0 427906922#0 427906922#3"/>
    </vehicle>
    <vehicle id="67" depart="26.42">
        <route edges="427906928#0 87177195#0 750007896#0 87177193#0 427906927#0 -402083657#1 -513238728 -513238729 -6450855#2 6449608#0"/>
    </vehicle>
    <vehicle id="68" depart="27.63">
        <route edges="421760949 428073494#0 421760950 428073498#0"/>
    </vehicle>
    <vehicle id="69" depart="27.92">
        <route edges="987689372#0 428073550#0 55481045 623055162 513238696 513238699 1058885032 421761553#0 749999285"/>
    </vehicle>
    <vehicle id="70" depart="29.06">
        <route edges="987689372#0 428073550#0 55481045 623055162 513238696"/>
    </vehicle>
    <vehicle id="71" depart="29.52">
        <route edges="-663406349 -513238726 427906928#0 87177195#0 750007896#0 55481042 513238707 513238692 55481044 664710840 428073532 428073494#0 421760950 428073498#0"/>
    </vehicle>
    <vehicle id="72" depart="30.22">
        <route edges="99660246#0 -622484162#7 513503504#0 513503503 513503502 513503501#0 427906922#0 -1222672055#1 -1285047732"/>
    </vehicle>
    <vehicle id="73" depart="30.47">
        <route edges="99660246#0 -622484162#7 513503504#0 513503503 513503502 513503501#0 427906922#0 -1222672055#1 -1285047732"/>
    </vehicle>
    <vehicle id="74" depart="30.61">
        <route edges="427906753#0 1262800969 55481042 513238707 513238692 55481044 664710840 428073532 -983211894#1 -428073485 -1063364332 -428073490"/>
    </vehicle>
    <vehicle id="75" depart="31.25">
        <route edges="427906759#0 427906757#0 -451954734#2 -55480933#1 -513238722#1 -6400142#1 -663406352 -513238724 -663406349 -513238726 -402083657#1 -513238728 -513238729 -6450855#2 6449608#0"/>
    </vehicle>
    <vehicle id="76" depart="31.71">
        <route edges="-428073498#1 -1063364330 -428073486 55481045 623055162 513238696 513238699 1058885032 87177193#0 427906927#0 -402083657#1 -513238728 -513238729 -513238730"/>
    </vehicle>
    <vehicle id="77" depart="31.78">
        <route edges="6393971#0 775139011#0 770771941#0 513503504#0 513503503 513503502 513503501#0 1295951547 -1295951544"/>
    </vehicle>
    <vehicle id="78" depart="32.38">
        <route edges="987689372#0 428073550#0 55481045 623055162 513238696 513238699 1058885032 55481042 513238707 513238692 55481044 664710840"/>
    </vehicle>
    <vehicle id="79" depart="32.63">
        <route edges="513490801#0 427906922#0 427906922#3"/>
    </vehicle>
    <vehicle id="80" depart="33.19">
        <route edges="987689372#0 428073550#0 -983211894#1 -428073485 -1063364332 -428073490"/>
    </vehicle>
    <vehicle id="81" depart="33.31">
        <route edges="427906758 592232752#0 169303084#0 1165641298"/>
    </vehicle>
    <vehicle id="82" depart="33.36">
        <route edges="427906758 592232752#0 169303084#0 1165641298"/>
    </vehicle>
    <vehicle id="83" depart="33.67">
        <route edges="428073484#0 428073492 428073485 421760949 428073494#0 421760950 428073498#0"/>
    </vehicle>
    <vehicle id="84" depart="34.14">
        <route edges="428073532 55481045 623055162 513238696 513238699 1058885032 87177193#0 427906927#0 -402083657#1 -513238728 -513238729 -513238730 -513238731 -513238732#1 513238732#0 513238731 513238730"/>
    </vehicle>
    <vehicle id="85" depart="34.28">
        <route edges="425272688#0 425272689#0 108384167#0 775139011#0 770771941#0 622484162#1 -99660246#2"/>
    </vehicle>
    <vehicle id="86" depart="34.48">
        <route edges="531669522-AddedOffRampEdge 6334476#0 55481044 664710840 428073532 55481045 623055162 513238696 513238699 1058885032 87177193#0 427906927#0 -402083657#1 -513238728 -513238729 -513238730 -513238731 -513238732#1"/>
    </vehicle>
    <vehicle id="87" depart="34.90">
        <route edges="1295951544 427906779 427906792 -1225324171#1 -1222672054#1 -1285047732"/>
    </vehicle>
    <vehicle id="88" depart="35.01">
        <route edges="-1063364330 -428073486 48995747#0 428073554#0"/>
    </vehicle>
    <vehicle id="89" depart="35.24">
        <route edges="513490801#0 1295951547 427906779 427906792 -1225324171#1 -1222672054#1"/>
    </vehicle>
    <vehicle id="90" depart="35.28">
        <route edges="428073484#0 428073492 428073485 421760949 55481045 623055162 513238696 513238699 1058885032 55481042 513238707 513238692 55481044 664710840 428073532 -983211894#1 -428073485 -1063364332 -428073490"/>
    </vehicle>
    <vehicle id="91" depart="35.60">
        <route edges="427906928#0 87177195#0 750007896#0 87177193#0 427906927#0 -402083657#1 -513238728 -513238729 -6450855#2 6449608#0"/>
    </vehicle>
    <vehicle id="92" depart="35.72">
        <route edges="6330434 885517649 885517650#0 55481042 513238707 513238692 55481044 664710840 428073532 55481045 132147575#0"/>
    </vehicle>
    <vehicle id="93" depart="36.63">
        <route edges="427906753#0 1262800969 55481042 513238707 513238692 55481044 664710840 428073532 -983211894#1 -428073485 -1063364332 -428073490"/>
    </vehicle>
    <vehicle id="94" depart="36.86">
        <route edges="427906758 592232752#0 87177193#0 427906927#0 -402083657#1 -513238728 -513238729 -513238730 -513238731 -513238732#1"/>
    </vehicle>
    <vehicle id="95" depart="37.09">
        <route edges="987689372#0 428073550#0 55481045 623055162 513238696 513238699 1058885032 421761553#0 749999285"/>
    </vehicle>
    <vehicle id="96" depart="37.44">
        <route edges="1116291572#0 1116291571#0 -6400142#1 -663406352 -513238724 -663406349 -513238726 -402083657#1 -513238728 -513238729 -6450855#2 6449608#0"/>
    </vehicle>
    <vehicle id="97" depart="38.60">
        <route edges="-428073498#1 -1063364330 -428073486 55481045 623055162 513238696 513238699 1058885032 87177193#0 427906927#0 -402083657#1 -513238728 -513238729 -6450855#2 6449608#0"/>
    </vehicle>
    <vehicle id="98" depart="38.84">
        <route edges="427906753#0 1262800969 55481042 513238707 513238692 55481044 664710840 428073532 48995747#0 428073554#0"/>
    </vehicle>
    <vehicle id="99" depart="39.22">
        <route edges="-428073498#1 -1063364330 -428073486 55481045 623055162 513238696 513238699 1058885032 87177193#0 427906927#0 545416269#0 513238725 513238724 663406352"/>
    </vehicle>
    <vehicle id="100" depart="39.27">
        <route edges="987689372#0 428073550#0 428073494#0 421760950 428073498#0"/>
    </vehicle>
    <vehicle id="101" depart="39.34">
        <route edges="-963864107 427906728#0 402083655#0 427906729#0 513238727#0 427906923 545416269#0 513238725 513238724 663406352 6400142#0 513238722#0 55480933#0 451954734#0 -427906757#1 -427906759#2"/>
    </vehicle>
    <vehicle id="102" depart="39.41">
        <route edges="-963864107 427906728#0 402083655#0 427906729#0 -427906729#2 -402083655#4 -463139533 427906738#0"/>
    </vehicle>
    <vehicle id="103" depart="39.77">
        <route edges="425272688#0 425272689#0 108384167#0 775139011#0 770771941#0 622484162#1 513490829#0 513490827#0"/>
    </vehicle>
    <vehicle id="104" depart="39.80">
        <route edges="-963864107 427906728#0 402083655#0 427906729#0 513238727#0 427906923 427906928#0 87177195#0 750007896#0 55481042 513238707 513238692 55481044 664710840 428073532 428073494#0 421760950 428073498#0"/>
    </vehicle>
    <vehicle id="105" depart="40.02">
        <route edges="-963864107 427906728#0 402083655#0 427906729#0 513238727#0 427906923 545416269#0 513238725 513238724 663406352 6400142#0 513238722#0 55480933#0 451954734#0 427906753#0"/>
    </vehicle>
    <vehicle id="106" depart="40.10">
        <route edges="427906758 592232752#0 169303084#0"/>
    </vehicle>
    <vehicle id="107" depart="40.32">
        <route edges="513238722#0 55480933#0 451954734#0 427906753#0 1262800969 55481042 513238707 513238692 55481044 664710840 428073532 -983211894#1 -428073485 -1063364332 -428073490"/>
    </vehicle>
    <vehicle id="108" depart="40.36">
        <route edges="-663406349 -513238726 427906928#0 87177195#0 750007896#0 55481042 513238707 513238692 55481044 664710840 428073532 428073494#0 421760950 428073498#0"/>
    </vehicle>
    <vehicle id="109" depart="40.46">
        <route edges="987689372#0 428073550#0 -983211894#1 -428073485 -1063364332 -428073490"/>
    </vehicle>
    <vehicle id="110" depart="40.50">
        <route edges="428073550#0 428073494#0 421760950 428073498#0"/>
    </vehicle>
    <vehicle id="111" depart="40.57">
        <route edges="6393971#0 775139011#0 770771941#0 513503504#0 513503503 513503502 513503501#0 427906924#0 427906926#0"/>
    </vehicle>
    <vehicle id="112" depart="40.71">
        <route edges="-1063364330 -428073486 48995747#0 428073554#0"/>
    </vehicle>
    <vehicle id="113" depart="40.94">
        <route edges="-6422057#6 1225324172 1225324171#0 243441994#0 427906924#0 427906926#0 513503512 387201733#0 513503511 513238727#0 427906923 545416269#0 513238725 513238724 663406352 6400142#0 513238722#0 55480933#0 451954734#0 -427906757#1 -427906759#2"/>
    </vehicle>
    <vehicle id="114" depart="41.66">
        <route edges="428073532 55481045 623055162 513238696 513238699 1058885032 87177193#0 427906927#0 -402083657#1 -513238728 -513238729 -513238730 -513238731 -513238732#1 513238732#0 513238731 513238730"/>
    </vehicle>
    <vehicle id="115" depart="42.13">
        <route edges="-428073498#1 -1063364330 -428073486 55481045 132147575#0"/>
    </vehicle>
    <vehicle id="116" depart="42.79">
        <route edges="428073550#0 428073494#0 421760950 428073498#0"/>
    </vehicle>
    <vehicle id="117" depart="43.12">
        <route edges="428073484#0 428073492 428073485 421760949 55481045 623055162 513238696 513238699 1058885032 87177193#0 427906927#0 -402083657#1 -513238728 -513238729 -6450855#2 6449608#0"/>
    </vehicle>
    <vehicle id="118" depart="43.22">
        <route edges="-1063364330 -428073486 55481045 623055162 513238696 513238699 1058885032 87177193#0 427906927#0 513503510#0 513503509#0 513503508#0 513503507 -770771941#5 -775139011#2 -6393971#3"/>
    </vehicle>
    <vehicle id="119" depart="43.27">
        <route edges="513490801#0 427906922#0 427906922#3"/>
    </vehicle>
    <vehicle id="120" depart="43.38">
        <route edges="-1063364330 -428073486"/>
    </vehicle>
    <vehicle id="121" depart="43.50">
        <route edges="987689372#0 428073550#0 428073494#0 421760950 428073498#0"/>
    </vehicle>
    <vehicle id="122" depart="43.61">
        <route edges="6393971#0 775139011#0 770771941#0 513503504#0 513503503 513503502 513503501#0 968748784 425272687#1 1049983327#0"/>
    </vehicle>
    <vehicle id="123" depart="45.56">
        <route edges="-428073498#1 -1063364330 -428073486 48995747#0 428073554#0"/>
    </vehicle>
    <vehicle id="124" depart="46.11">
        <route edges="6393971#0 775139011#0 770771941#0 622484162#1 -99660246#2"/>
    </vehicle>
    <vehicle id="125" depart="46.57">
        <route edges="-1063364330 -428073486 48995747#0 428073554#0"/>
    </vehicle>
    <vehicle id="126" depart="48.15">
        <route edges="-663406349 -513238726 427906928#0 87177195#0 750007896#0 55481042 513238707 513238692 55481044 664710840 428073532 428073494#0 421760950 428073498#0"/>
    </vehicle>
    <vehicle id="127" depart="48.46">
        <route edges="6393971#0 775139011#0 770771941#0 513503504#0 513503503 513503502 513503501#0 427906922#0 427906922#3"/>
    </vehicle>
    <vehicle id="128" depart="48.59">
        <route edges="987689372#0 428073550#0 55481045 623055162 513238696 513238699 1058885032 55481042 513238707 513238692 55481044 664710840"/>
    </vehicle>
    <vehicle id="129" depart="48.76">
        <route edges="513238732#0 513238731 513238730 513238729 513238728 402083657#0 427906928#0 87177195#0 750007896#0 55481042 513238707 513238692 55481044 664710840 428073532 428073494#0 421760950 428073498#0"/>
    </vehicle>
    <vehicle id="130" depart="49.59">
        <route edges="428073484#0 428073492 428073485 421760949 55481045 623055162 513238696 513238699 1058885032 55481042 513238707 513238692 55481044 664710840 428073532 -983211894#1 -428073485 -1063364332 -428073490"/>
    </vehicle>
    <vehicle id="131" depart="49.64">
        <route edges="-428073498#1 -1063364330 -428073486 -983211894#1 -428073485 -1063364332 -428073490 428073484#0 428073492 428073485 421760949 428073494#0 421760950 428073498#0"/>
    </vehicle>
    <vehicle id="132" depart="49.85">
        <route edges="513490801#0 427906922#0 427906922#3"/>
    </vehicle>
    <vehicle id="133" depart="50.00">
        <route edges="987689372#0 428073550#0 55481045 132147575#0"/>
    </vehicle>
    <vehicle id="134" depart="51.72">
        <route edges="-428073498#1 -1063364330 -428073486 55481045"/>
    </vehicle>
    <vehicle id="135" depart="51.73">
        <route edges="-963864107 427906728#0 402083655#0 427906729#0 513238727#0 427906923 -402083657#1 -513238728 -513238729 -513238730 -513238731 -513238732#1"/>
    </vehicle>
    <vehicle id="136" depart="51.84">
        <route edges="-428073498#1 -1063364330 -428073486 55481045 623055162 513238696 513238699 1058885032 87177193#0 427906927#0 545416269#0 513238725 513238724 663406352"/>
    </vehicle>
    <vehicle id="137" depart="51.99">
        <route edges="-6449608#2 6450855#0 513238729 513238728 402083657#0 427906928#0 87177195#0 750007896#0 55481042 513238707 513238692 55481044 664710840 428073532 428073494#0 421760950 428073498#0"/>
    </vehicle>
    <vehicle id="138" depart="52.16">
        <route edges="987689372#0 428073550#0 428073494#0 421760950"/>
    </vehicle>
    <vehicle id="139" depart="52.85">
        <route edges="427906753#0 1262800969 55481042 513238707 513238692 55481044 664710840 428073532 -983211894#1 -428073485 -1063364332 -428073490"/>
    </vehicle>
    <vehicle id="140" depart="53.67">
        <route edges="428073550#0 428073494#0 421760950 428073498#0"/>
    </vehicle>
    <vehicle id="141" depart="54.62">
        <route edges="513490801#0 427906922#0 -1222672055#1 -1285047732"/>
    </vehicle>
    <vehicle id="142" depart="54.80">
        <route edges="1116291571#0 513238722#0 55480933#0 451954734#0 427906753#0 1262800969 55481042 513238707 513238692 55481044 664710840 428073532 428073494#0 421760950"/>
    </vehicle>
    <vehicle id="143" depart="54.94">
        <route edges="-1063364330 -428073486 48995747#0 428073554#0"/>
    </vehicle>
    <vehicle id="144" depart="54.99">
        <route edges="427906928#0 87177195#0 750007896#0 87177193#0 427906927#0 -402083657#1 -513238728 -513238729 -6450855#2 6449608#0"/>
    </vehicle>
    <vehicle id="145" depart="55.35">
        <route edges="-1063364330 -428073486 48995747#0 428073554#0"/>
    </vehicle>
    <vehicle id="146" depart="56.67">
        <route edges="-6449608#2 6450855#0 513238729 513238728 402083657#0 545416269#0 513238725 513238724 663406352 6400142#0 1116291574#0 1116291575"/>
    </vehicle>
    <vehicle id="147" depart="57.51">
        <route edges="427906753#0 1262800969 55481042 513238707 513238692 55481044 664710840 428073532 48995747#0 428073554#0"/>
    </vehicle>
    <vehicle id="148" depart="57.59">
        <route edges="427906758 592232752#0 421761553#0 749999285"/>
    </vehicle>
    <vehicle id="149" depart="58.02">
        <route edges="513503507 513503504#0 513503503 513503502 513503501#0 427906922#0 427906922#3"/>
    </vehicle>
    <vehicle id="150" depart="58.55">
        <route edges="427906928#0 87177195#0 750007896#0 87177193#0 427906927#0 -402083657#1 -513238728 -513238729 -6450855#2 6449608#0"/>
    </vehicle>
    <vehicle id="151" depart="58.92">
        <route edges="427906758 592232752#0 169303084#0 1165641298"/>
    </vehicle>
    <vehicle id="152" depart="59.53">
        <route edges="1116291571#0 513238722#0 55480933#0 451954734#0 427906753#0 1262800969 55481042 513238707 513238692 55481044 664710840 428073532 428073494#0 421760950"/>
    </vehicle>
    <vehicle id="153" depart="59.82">
        <route edges="-425272689#3 470492322#0 738584326 427906774 1295951547 -1295951544"/>
    </vehicle>
    <vehicle id="154" depart="60.72">
        <route edges="-6449608#2 6450855#0 513238729 513238728 402083657#0 513503510#0"/>
    </vehicle>
    <vehicle id="155" depart="60.76">
        <route edges="6330434 885517649 885517650#0 55481042 513238707 513238692 55481044 664710840 428073532 -983211894#1 -428073485 -1063364332 -428073490"/>
    </vehicle>
    <vehicle id="156" depart="60.95">
        <route edges="987689372#0 428073550#0 428073494#0 421760950 428073498#0"/>
    </vehicle>
    <vehicle id="157" depart="61.31">
        <route edges="-663406349 -513238726 427906928#0 87177195#0 750007896#0 55481042 513238707 513238692 55481044 664710840 428073532 428073494#0 421760950 428073498#0"/>
    </vehicle>
    <vehicle id="158" depart="62.69">
        <route edges="427906927#0 -402083657#1 -513238728 -513238729 -513238730 -513238731 -513238732#1"/>
    </vehicle>
    <vehicle id="159" depart="63.19">