<?xml version="1.0" encoding="UTF-8"?>

<!-- generated on 2026-02-17T20:47:45.114230-08:00 by Eclipse SUMO netedit 1.26.0
<neteditConfiguration xmlns:xsi="http://www.w3.org/2001/XMLSchema-instance" xsi:noNamespaceSchemaLocation="http://sumo.dlr.de/xsd/neteditConfiguration.xsd">

    <input>
        <sumo-net-file value="C:\Users\Duke3\Downloads\SUMO\V2\NE_8th_St_Corridor.net.xml"/>
    </input>

    <output>
        <output-file value="C:\Users\Duke3\Downloads\SUMO\V2\NE_8th_St_Corridor.net.xml"/>
        <output.street-names value="true"/>
    </output>

    <processing>
        <geometry.min-radius.fix.railways value="false"/>
        <geometry.avoid-overlap value="false"/>
        <geometry.max-grade.fix value="false"/>
        <offset.disable-normalization value="true"/>
        <lefthand value="0"/>
    </processing>

    <junctions>
        <no-turnarounds value="true"/>
        <junctions.corner-detail value="5"/>
        <junctions.limit-turn-speed value="5.50"/>
        <rectangular-lane-cut value="0"/>
    </junctions>

    <pedestrian>
        <walkingareas value="0"/>
    </pedestrian>

</neteditConfiguration>
-->

<net version="1.20" junctionCornerDetail="5" limitTurnSpeed="5.50" avoidOverlap="0" xmlns:xsi="http://www.w3.org/2001/XMLSchema-instance" xsi:noNamespaceSchemaLocation="http://sumo.dlr.de/xsd/net_file.xsd">

    <location netOffset="-559785.37,-5273242.64" convBoundary="0.00,0.00,1767.61,1375.68" origBoundary="-122.204401,47.609717,-122.179926,47.622861" projParameter="+proj=utm +zone=10 +ellps=WGS84 +datum=WGS84 +units=m +no_defs"/>

    <type id="highway.motorway_link" priority="9" numLanes="1" speed="22.22" allow="private emergency authority army vip passenger hov taxi bus coach delivery truck trailer motorcycle evehicle custom1 custom2" oneway="1"/>
    <type id="highway.primary" priority="12" numLanes="2" speed="27.78" disallow="tram rail_urban rail rail_electric rail_fast ship container cable_car subway aircraft wheelchair scooter drone" oneway="0"/>
    <type id="highway.primary_link" priority="7" numLanes="1" speed="22.22" disallow="tram rail_urban rail rail_electric rail_fast ship container cable_car subway aircraft wheelchair scooter drone" oneway="0"/>
    <type id="highway.residential" priority="3" numLanes="1" speed="13.89" disallow="tram rail_urban rail rail_electric rail_fast ship container cable_car subway aircraft wheelchair scooter drone" oneway="0"/>
    <type id="highway.secondary" priority="11" numLanes="1" speed="27.78" disallow="tram rail_urban rail rail_electric rail_fast ship container cable_car subway aircraft wheelchair scooter drone" oneway="0"/>
    <type id="highway.tertiary" priority="10" numLanes="1" speed="22.22" disallow="tram rail_urban rail rail_electric rail_fast ship container cable_car subway aircraft wheelchair scooter drone" oneway="0"/>
    <type id="highway.tertiary_link" priority="5" numLanes="1" speed="22.22" disallow="tram rail_urban rail rail_electric rail_fast ship container cable_car subway aircraft wheelchair scooter drone" oneway="0"/>
    <type id="highway.unclassified" priority="4" numLanes="1" speed="13.89" disallow="tram rail_urban rail rail_electric rail_fast ship container cable_car subway aircraft wheelchair scooter drone" oneway="0"/>

    <edge id=":10209828622_0" function="internal">
        <lane id=":10209828622_0_0" index="0" disallow="tram rail_urban rail rail_electric rail_fast ship container cable_car subway aircraft wheelchair scooter drone" speed="4.12" length="4.77" shape="816.94,526.96 818.19,526.09 819.05,526.02 819.51,526.74 819.59,528.26"/>
    </edge>
    <edge id=":10209828624_0" function="internal">
        <lane id=":10209828624_0_0" index="0" disallow="tram rail_urban rail rail_electric rail_fast ship container cable_car subway aircraft wheelchair scooter drone" speed="13.41" length="8.53" shape="817.61,587.56 818.06,590.03 819.13,591.60 820.19,593.17 820.61,595.64"/>
        <lane id=":10209828624_0_1" index="1" disallow="tram rail_urban rail rail_electric rail_fast ship container cable_car subway aircraft wheelchair scooter drone" speed="13.41" length="8.53" shape="817.61,587.56 817.42,595.54"/>
        <lane id=":10209828624_0_2" index="2" disallow="tram rail_urban rail rail_electric rail_fast ship container cable_car subway aircraft wheelchair scooter drone" speed="13.41" length="8.53" shape="817.61,587.56 817.07,590.00 815.93,591.50 814.79,593.00 814.22,595.44"/>
    </edge>
    <edge id=":10209828625_0" function="internal">
        <lane id=":10209828625_0_0" index="0" disallow="tram rail_urban rail rail_electric rail_fast ship container cable_car subway aircraft wheelchair scooter drone" speed="13.41" length="5.54" shape="805.78,542.53 805.96,540.83 806.22,539.68 806.55,538.54 806.99,536.88"/>
        <lane id=":10209828625_0_1" index="1" disallow="tram rail_urban rail rail_electric rail_fast ship container cable_car subway aircraft wheelchair scooter drone" speed="13.41" length="5.54" shape="808.97,542.76 809.14,541.20 809.39,540.16 809.70,539.12 810.11,537.60"/>
    </edge>
    <edge id=":10209828625_2" function="internal">
        <lane id=":10209828625_2_0" index="0" disallow="tram rail_urban rail rail_electric rail_fast ship container cable_car subway aircraft wheelchair scooter drone" speed="7.23" length="4.33" shape="812.16,542.99 812.29,541.73 812.55,540.87 813.06,540.14 813.97,539.25"/>
    </edge>
    <edge id=":11340656342_0" function="internal">
        <lane id=":11340656342_0_0" index="0" disallow="tram rail_urban rail rail_electric rail_fast ship container cable_car subway aircraft wheelchair scooter drone" speed="5.65" length="9.98" shape="108.87,964.52 105.85,962.46 103.69,961.91 102.39,962.85 101.96,965.31"/>
    </edge>
    <edge id=":11340656342_1" function="internal">
        <lane id=":11340656342_1_0" index="0" disallow="tram rail_urban rail rail_electric rail_fast ship container cable_car subway aircraft wheelchair scooter drone" speed="2.24" length="13.77" shape="108.87,964.52 106.05,962.25 103.56,959.95 101.58,957.33 100.32,954.09"/>
    </edge>
    <edge id=":11340656342_2" function="internal">
        <lane id=":11340656342_2_0" index="0" disallow="tram rail_urban rail rail_electric rail_fast ship container cable_car subway aircraft wheelchair scooter drone" speed="2.24" length="4.67" shape="108.87,964.52 108.48,963.13 108.70,962.27 109.52,961.92 110.95,962.09"/>
    </edge>
    <edge id=":11340656342_3" function="internal">
        <lane id=":11340656342_3_0" index="0" disallow="tram rail_urban rail rail_electric rail_fast ship container cable_car subway aircraft wheelchair scooter drone" speed="2.24" length="12.68" shape="103.23,952.43 104.36,955.55 106.05,957.90 108.27,959.94 110.95,962.09"/>
    </edge>
    <edge id=":11340656342_4" function="internal">
        <lane id=":11340656342_4_0" index="0" disallow="tram rail_urban rail rail_electric rail_fast ship container cable_car subway aircraft wheelchair scooter drone" speed="8.07" length="13.03" shape="103.23,952.43 103.50,955.79 103.01,958.82 102.31,961.87 101.96,965.31"/>
    </edge>
    <edge id=":11340656342_5" function="internal">
        <lane id=":11340656342_5_0" index="0" disallow="tram rail_urban rail rail_electric rail_fast ship container cable_car subway aircraft wheelchair scooter drone" speed="2.24" length="4.89" shape="103.23,952.43 103.12,953.93 102.61,954.71 101.67,954.76 100.32,954.09"/>
    </edge>
    <edge id=":11340656342_6" function="internal">
        <lane id=":11340656342_6_0" index="0" disallow="tram rail_urban rail rail_electric rail_fast ship container cable_car subway aircraft wheelchair scooter drone" speed="8.07" length="8.95" shape="98.79,962.76 99.18,960.15 99.94,958.38 100.50,956.63 100.32,954.09"/>
    </edge>
    <edge id=":11340656342_7" function="internal">
        <lane id=":11340656342_7_0" index="0" disallow="tram rail_urban rail rail_electric rail_fast ship container cable_car subway aircraft wheelchair scooter drone" speed="7.20" length="17.12" shape="98.79,962.76 99.58,958.79 101.88,957.35 105.67,958.45 110.95,962.09"/>
    </edge>
    <edge id=":11340656342_8" function="internal">
        <lane id=":11340656342_8_0" index="0" disallow="tram rail_urban rail rail_electric rail_fast ship container cable_car subway aircraft wheelchair scooter drone" speed="3.97" length="5.94" shape="98.79,962.76 100.53,962.21 101.65,962.45 102.12,963.48 101.96,965.31"/>
    </edge>
    <edge id=":11340656349_0" function="internal">
        <lane id=":11340656349_0_0" index="0" disallow="tram rail_urban rail rail_electric rail_fast ship container cable_car subway aircraft wheelchair scooter drone" speed="6.61" length="9.25" shape="107.39,853.57 104.93,853.91 103.15,854.99 102.05,856.80 101.65,859.33"/>
    </edge>
    <edge id=":11340656349_1" function="internal">
        <lane id=":11340656349_1_0" index="0" disallow="tram rail_urban rail rail_electric rail_fast ship container cable_car subway aircraft wheelchair scooter drone" speed="13.41" length="14.41" shape="107.39,853.57 92.98,853.48"/>
        <lane id=":11340656349_1_1" index="1" disallow="tram rail_urban rail rail_electric rail_fast ship container cable_car subway aircraft wheelchair scooter drone" speed="13.41" length="14.41" shape="107.41,850.37 93.00,850.28"/>
    </edge>
    <edge id=":11340656349_3" function="internal">
        <lane id=":11340656349_3_0" index="0" disallow="tram rail_urban rail rail_electric rail_fast ship container cable_car subway aircraft wheelchair scooter drone" speed="6.48" length="9.04" shape="98.45,859.18 98.16,856.70 97.15,854.92 95.42,853.85 92.98,853.48"/>
    </edge>
    <edge id=":11340656349_4" function="internal">
        <lane id=":11340656349_4_0" index="0" disallow="tram rail_urban rail rail_electric rail_fast ship container cable_car subway aircraft wheelchair scooter drone" speed="2.24" length="4.67" shape="98.45,859.18 99.30,858.02 100.12,857.66 100.90,858.10 101.65,859.33"/>
    </edge>
    <edge id=":11363157406_0" function="internal">
        <lane id=":11363157406_0_0" index="0" disallow="tram rail_urban rail rail_electric rail_fast ship container cable_car subway aircraft wheelchair scooter drone" speed="8.07" length="0.30" shape="186.48,962.46 186.17,962.46"/>
    </edge>
    <edge id=":11363157406_1" function="internal">
        <lane id=":11363157406_1_0" index="0" disallow="tram rail_urban rail rail_electric rail_fast ship container cable_car subway aircraft wheelchair scooter drone" speed="8.07" length="0.30" shape="186.23,959.26 186.52,959.26"/>
    </edge>
    <edge id=":1139506798_0" function="internal">
        <lane id=":1139506798_0_0" index="0" disallow="tram rail_urban rail rail_electric rail_fast ship container cable_car subway aircraft wheelchair scooter drone" speed="8.98" length="5.54" shape="988.51,835.11 990.10,834.98 991.15,834.59 992.09,833.89 993.36,832.84"/>
    </edge>
    <edge id=":1139506798_1" function="internal">
        <lane id=":1139506798_1_0" index="0" disallow="tram rail_urban rail rail_electric rail_fast ship container cable_car subway aircraft wheelchair scooter drone" speed="13.41" length="4.79" shape="988.55,838.31 989.90,838.04 990.75,837.48 991.61,836.92 992.96,836.65"/>
        <lane id=":1139506798_1_1" index="1" disallow="tram rail_urban rail rail_electric rail_fast ship container cable_car subway aircraft wheelchair scooter drone" speed="13.41" length="4.79" shape="988.58,841.51 989.93,841.24 990.78,840.68 991.64,840.12 992.98,839.85"/>
        <lane id=":1139506798_1_2" index="2" disallow="tram rail_urban rail rail_electric rail_fast ship container cable_car subway aircraft wheelchair scooter drone" speed="13.41" length="4.79" shape="988.62,844.71 989.97,844.44 990.82,843.88 991.67,843.32 993.01,843.05"/>
    </edge>
    <edge id=":1152296184_0" function="internal">
        <lane id=":1152296184_0_0" index="0" disallow="tram rail_urban rail rail_electric rail_fast ship container cable_car subway aircraft wheelchair scooter drone" speed="6.55" length="9.07" shape="404.89,964.62 402.40,964.74 400.54,965.62 399.31,967.25 398.70,969.65"/>
    </edge>
    <edge id=":1152296184_1" function="internal">
        <lane id=":1152296184_1_0" index="0" disallow="tram rail_urban rail rail_electric rail_fast ship container cable_car subway aircraft wheelchair scooter drone" speed="7.99" length="14.21" shape="404.89,964.62 401.10,963.72 398.52,961.81 397.14,958.92 396.97,955.03"/>
    </edge>
    <edge id=":1152296184_2" function="internal">
        <lane id=":1152296184_2_0" index="0" disallow="tram rail_urban rail rail_electric rail_fast ship container cable_car subway aircraft wheelchair scooter drone" speed="3.65" length="4.67" shape="404.89,964.62 403.77,963.71 403.45,962.88 403.92,962.12 405.19,961.44"/>
    </edge>
    <edge id=":1152296184_3" function="internal">
        <lane id=":1152296184_3_0" index="0" disallow="tram rail_urban rail rail_electric rail_fast ship container cable_car subway aircraft wheelchair scooter drone" speed="6.50" length="9.03" shape="400.15,955.34 400.26,957.81 401.14,959.65 402.78,960.86 405.19,961.44"/>
    </edge>
    <edge id=":1152296184_4" function="internal">
        <lane id=":1152296184_4_0" index="0" disallow="tram rail_urban rail rail_electric rail_fast ship container cable_car subway aircraft wheelchair scooter drone" speed="13.41" length="14.39" shape="400.15,955.34 398.70,969.65"/>
    </edge>
    <edge id=":1152296184_5" function="internal">
        <lane id=":1152296184_5_0" index="0" disallow="tram rail_urban rail rail_electric rail_fast ship container cable_car subway aircraft wheelchair scooter drone" speed="3.65" length="1.44" shape="400.15,955.34 399.24,956.45"/>
    </edge>
    <edge id=":1152296184_9" function="internal">
        <lane id=":1152296184_9_0" index="0" disallow="tram rail_urban rail rail_electric rail_fast ship container cable_car subway aircraft wheelchair scooter drone" speed="3.65" length="3.23" shape="399.24,956.45 398.41,956.77 397.65,956.30 396.97,955.03"/>
    </edge>
    <edge id=":1152296184_6" function="internal">
        <lane id=":1152296184_6_0" index="0" disallow="tram rail_urban rail rail_electric rail_fast ship container cable_car subway aircraft wheelchair scooter drone" speed="13.41" length="15.99" shape="389.15,968.64 390.65,963.92 393.19,960.77 395.66,958.16 396.97,955.03"/>
    </edge>
    <edge id=":1152296184_7" function="internal">
        <lane id=":1152296184_7_0" index="0" disallow="tram rail_urban rail rail_electric rail_fast ship container cable_car subway aircraft wheelchair scooter drone" speed="8.70" length="8.11" shape="392.34,968.98 393.48,965.26 396.01,962.77 396.64,962.56"/>
    </edge>
    <edge id=":1152296184_8" function="internal">
        <lane id=":1152296184_8_0" index="0" disallow="tram rail_urban rail rail_electric rail_fast ship container cable_car subway aircraft wheelchair scooter drone" speed="3.65" length="1.44" shape="395.52,969.31 396.44,968.20"/>
    </edge>
    <edge id=":1152296184_10" function="internal">
        <lane id=":1152296184_10_0" index="0" disallow="tram rail_urban rail rail_electric rail_fast ship container cable_car subway aircraft wheelchair scooter drone" speed="8.70" length="8.72" shape="396.64,962.56 399.91,961.49 405.19,961.44"/>
    </edge>
    <edge id=":1152296184_11" function="internal">
        <lane id=":1152296184_11_0" index="0" disallow="tram rail_urban rail rail_electric rail_fast ship container cable_car subway aircraft wheelchair scooter drone" speed="3.65" length="3.23" shape="396.44,968.20 397.28,967.89 398.03,968.37 398.70,969.65"/>
    </edge>
    <edge id=":1197816854_0" function="internal">
        <lane id=":1197816854_0_0" index="0" disallow="tram rail_urban rail rail_electric rail_fast ship container cable_car subway aircraft wheelchair scooter drone" speed="13.41" length="8.43" shape="1417.16,750.89 1416.60,753.22 1415.47,754.64 1414.34,756.07 1413.79,758.40"/>
        <lane id=":1197816854_0_1" index="1" disallow="tram rail_urban rail rail_electric rail_fast ship container cable_car subway aircraft wheelchair scooter drone" speed="13.41" length="8.43" shape="1413.96,750.82 1413.41,753.15 1412.27,754.57 1411.14,755.99 1410.59,758.32"/>
    </edge>
    <edge id=":1197816854_2" function="internal">
        <lane id=":1197816854_2_0" index="0" disallow="tram rail_urban rail rail_electric rail_fast ship container cable_car subway aircraft wheelchair scooter drone" speed="13.41" length="8.14" shape="1404.19,758.18 1403.74,755.83 1402.68,754.35 1401.61,752.88 1401.16,750.53"/>
        <lane id=":1197816854_2_1" index="1" disallow="tram rail_urban rail rail_electric rail_fast ship container cable_car subway aircraft wheelchair scooter drone" speed="13.41" length="8.14" shape="1407.39,758.25 1406.94,755.90 1405.88,754.43 1404.81,752.96 1404.36,750.60"/>
        <lane id=":1197816854_2_2" index="2" disallow="tram rail_urban rail rail_electric rail_fast ship container cable_car subway aircraft wheelchair scooter drone" speed="13.41" length="8.14" shape="1407.39,758.25 1407.56,750.68"/>
    </edge>
    <edge id=":1203630411_0" function="internal">
        <lane id=":1203630411_0_0" index="0" disallow="tram rail_urban rail rail_electric rail_fast ship container cable_car subway aircraft wheelchair scooter drone" speed="22.22" length="8.59" shape="910.06,645.44 907.57,646.01 906.02,647.14 904.47,648.26 901.98,648.76"/>
        <lane id=":1203630411_0_1" index="1" disallow="tram rail_urban rail rail_electric rail_fast ship container cable_car subway aircraft wheelchair scooter drone" speed="22.22" length="8.59" shape="909.97,642.24 907.50,642.81 905.97,643.94 904.44,645.06 901.97,645.56"/>
        <lane id=":1203630411_0_2" index="2" disallow="tram rail_urban rail rail_electric rail_fast ship container cable_car subway aircraft wheelchair scooter drone" speed="22.22" length="8.59" shape="909.97,642.24 901.96,642.36"/>
    </edge>
    <edge id=":1203630411_3" function="internal">
        <lane id=":1203630411_3_0" index="0" disallow="tram rail_urban rail rail_electric rail_fast ship container cable_car subway aircraft wheelchair scooter drone" speed="22.22" length="8.43" shape="901.94,635.96 904.34,635.46 905.82,634.34 907.30,633.21 909.70,632.64"/>
        <lane id=":1203630411_3_1" index="1" disallow="tram rail_urban rail rail_electric rail_fast ship container cable_car subway aircraft wheelchair scooter drone" speed="22.22" length="8.43" shape="901.95,639.16 904.37,638.66 905.87,637.54 907.37,636.41 909.79,635.84"/>
        <lane id=":1203630411_3_2" index="2" disallow="tram rail_urban rail rail_electric rail_fast ship container cable_car subway aircraft wheelchair scooter drone" speed="22.22" length="8.43" shape="901.95,639.16 909.88,639.04"/>
    </edge>
    <edge id=":1232684792_0" function="internal">
        <lane id=":1232684792_0_0" index="0" disallow="tram rail_urban rail rail_electric rail_fast ship container cable_car subway aircraft wheelchair scooter drone" speed="3.65" length="4.67" shape="462.42,968.90 463.46,969.90 463.70,970.76 463.16,971.48 461.84,972.04"/>
    </edge>
    <edge id=":1243794929_0" function="internal">
        <lane id=":1243794929_0_0" index="0" disallow="tram rail_urban rail rail_electric rail_fast ship container cable_car subway aircraft wheelchair scooter drone" speed="13.89" length="3.52" shape="314.73,641.98 315.68,642.22 316.24,642.77 316.79,643.32 317.74,643.57"/>
    </edge>
    <edge id=":1243794929_1" function="internal">
        <lane id=":1243794929_1_0" index="0" disallow="tram rail_urban rail rail_electric rail_fast ship container cable_car subway aircraft wheelchair scooter drone" speed="3.65" length="4.67" shape="314.73,641.98 315.94,642.77 316.34,643.57 315.94,644.37 314.75,645.18"/>
    </edge>
    <edge id=":1363938071_0" function="internal">
        <lane id=":1363938071_0_0" index="0" disallow="tram rail_urban rail rail_electric rail_fast ship container cable_car subway aircraft wheelchair scooter drone" speed="13.41" length="8.00" shape="815.84,724.70 815.73,732.69"/>
        <lane id=":1363938071_0_1" index="1" disallow="tram rail_urban rail rail_electric rail_fast ship container cable_car subway aircraft wheelchair scooter drone" speed="13.41" length="8.00" shape="812.64,724.65 812.53,732.65"/>
    </edge>
    <edge id=":1363938071_2" function="internal">
        <lane id=":1363938071_2_0" index="0" disallow="tram rail_urban rail rail_electric rail_fast ship container cable_car subway aircraft wheelchair scooter drone" speed="13.41" length="8.81" shape="802.93,732.52 803.46,730.07 804.58,728.54 805.70,727.02 806.24,724.56"/>
        <lane id=":1363938071_2_1" index="1" disallow="tram rail_urban rail rail_electric rail_fast ship container cable_car subway aircraft wheelchair scooter drone" speed="13.41" length="8.81" shape="806.13,732.57 806.66,730.11 807.78,728.59 808.90,727.06 809.44,724.61"/>
    </edge>
    <edge id=":1454255497_0" function="internal">
        <lane id=":1454255497_0_0" index="0" allow="private emergency authority army vip passenger hov taxi bus coach delivery truck trailer motorcycle evehicle custom1 custom2" speed="17.81" length="9.73" shape="1351.15,854.40 1348.29,854.55 1346.36,854.95 1344.46,855.57 1341.68,856.37"/>
    </edge>
    <edge id=":1454255497_1" function="internal">
        <lane id=":1454255497_1_0" index="0" disallow="pedestrian tram rail_urban rail rail_electric rail_fast ship container cable_car subway aircraft wheelchair scooter drone" speed="13.41" length="10.08" shape="1351.13,851.20 1348.17,851.47 1346.18,852.03 1344.19,852.59 1341.23,852.86"/>
        <lane id=":1454255497_1_1" index="1" disallow="pedestrian tram rail_urban rail rail_electric rail_fast ship container cable_car subway aircraft wheelchair scooter drone" speed="13.41" length="10.08" shape="1351.11,848.00 1348.15,848.27 1346.16,848.83 1344.17,849.39 1341.21,849.66"/>
    </edge>
    <edge id=":1835833516_0" function="internal">
        <lane id=":1835833516_0_0" index="0" allow="private emergency authority army vip passenger hov taxi bus coach delivery truck trailer motorcycle evehicle custom1 custom2" speed="22.22" length="3.13" shape="1141.67,605.71 1141.66,602.57"/>
    </edge>
    <edge id=":1835833516_1" function="internal">
        <lane id=":1835833516_1_0" index="0" allow="private emergency authority army vip passenger hov taxi bus coach delivery truck trailer motorcycle evehicle custom1 custom2" speed="22.22" length="3.20" shape="1138.23,605.72 1138.35,604.78 1138.42,604.14 1138.44,603.49 1138.46,602.54"/>
    </edge>
    <edge id=":1835841975_0" function="internal">
        <lane id=":1835841975_0_0" index="0" disallow="pedestrian tram rail_urban rail rail_electric rail_fast ship container cable_car subway aircraft wheelchair scooter drone" speed="13.41" length="8.00" shape="1254.92,853.40 1246.92,853.46"/>
        <lane id=":1835841975_0_1" index="1" disallow="pedestrian tram rail_urban rail rail_electric rail_fast ship container cable_car subway aircraft wheelchair scooter drone" speed="13.41" length="8.00" shape="1254.90,850.20 1246.90,850.26"/>
    </edge>
    <edge id=":269452308_0" function="internal">
        <lane id=":269452308_0_0" index="0" allow="private emergency authority army vip passenger hov taxi bus coach delivery truck trailer motorcycle evehicle custom1 custom2" speed="22.22" length="7.21" shape="1144.77,815.55 1144.82,813.41 1144.89,811.95 1145.04,810.49 1145.32,808.37"/>
    </edge>
    <edge id=":288908415_0" function="internal">
        <lane id=":288908415_0_0" index="0" allow="private emergency authority army vip passenger hov taxi bus coach delivery truck trailer motorcycle evehicle custom1 custom2" speed="22.22" length="3.12" shape="1223.80,595.12 1223.79,598.24"/>
    </edge>
    <edge id=":288908415_1" function="internal">
        <lane id=":288908415_1_0" index="0" allow="private emergency authority army vip passenger hov taxi bus coach delivery truck trailer motorcycle evehicle custom1 custom2" speed="22.22" length="3.14" shape="1220.61,595.01 1220.57,595.94 1220.53,596.58 1220.47,597.21 1220.36,598.14"/>
    </edge>
    <edge id=":288908435_0" function="internal">
        <lane id=":288908435_0_0" index="0" allow="private emergency authority army vip passenger hov taxi bus coach delivery truck trailer motorcycle evehicle custom1 custom2" speed="22.22" length="7.96" shape="1209.03,878.23 1208.97,886.19"/>
    </edge>
    <edge id=":288917944_0" function="internal">
        <lane id=":288917944_0_0" index="0" allow="private emergency authority army vip passenger hov taxi bus coach delivery truck trailer motorcycle evehicle custom1 custom2" speed="22.22" length="7.34" shape="1143.90,882.80 1143.71,880.63 1143.63,879.15 1143.61,877.65 1143.65,875.48"/>
    </edge>
    <edge id=":3153556582_0" function="internal">
        <lane id=":3153556582_0_0" index="0" disallow="tram rail_urban rail rail_electric rail_fast ship container cable_car subway aircraft wheelchair scooter drone" speed="13.41" length="24.82" shape="1020.58,624.51 1019.99,632.17 1018.79,637.67 1017.54,642.72 1016.80,649.03"/>
        <lane id=":3153556582_0_1" index="1" disallow="tram rail_urban rail rail_electric rail_fast ship container cable_car subway aircraft wheelchair scooter drone" speed="13.41" length="24.82" shape="1017.38,624.47 1016.79,632.10 1015.59,637.57 1014.34,642.61 1013.60,648.90"/>
    </edge>
    <edge id=":3153556582_2" function="internal">
        <lane id=":3153556582_2_0" index="0" disallow="tram rail_urban rail rail_electric rail_fast ship container cable_car subway aircraft wheelchair scooter drone" speed="10.59" length="7.08" shape="1014.19,624.44 1013.14,630.98 1012.90,631.36"/>
    </edge>
    <edge id=":3153556582_3" function="internal">
        <lane id=":3153556582_3_0" index="0" disallow="tram rail_urban rail rail_electric rail_fast ship container cable_car subway aircraft wheelchair scooter drone" speed="3.65" length="1.44" shape="1014.19,624.44 1013.37,625.63"/>
    </edge>
    <edge id=":3153556582_11" function="internal">
        <lane id=":3153556582_11_0" index="0" disallow="tram rail_urban rail rail_electric rail_fast ship container cable_car subway aircraft wheelchair scooter drone" speed="10.59" length="17.78" shape="1012.90,631.36 1010.17,635.72 1005.26,638.65 998.43,639.78"/>
    </edge>
    <edge id=":3153556582_12" function="internal">
        <lane id=":3153556582_12_0" index="0" disallow="tram rail_urban rail rail_electric rail_fast ship container cable_car subway aircraft wheelchair scooter drone" speed="3.65" length="3.23" shape="1013.37,625.63 1012.57,626.02 1011.77,625.61 1010.99,624.40"/>
    </edge>
    <edge id=":3153556582_4" function="internal">
        <lane id=":3153556582_4_0" index="0" disallow="tram rail_urban rail rail_electric rail_fast ship container cable_car subway aircraft wheelchair scooter drone" speed="7.65" length="12.49" shape="998.15,630.18 1002.34,629.71 1005.35,628.59 1007.16,626.81 1007.79,624.37"/>
    </edge>
    <edge id=":3153556582_5" function="internal">
        <lane id=":3153556582_5_0" index="0" disallow="tram rail_urban rail rail_electric rail_fast ship container cable_car subway aircraft wheelchair scooter drone" speed="9.74" length="22.65" shape="998.34,636.58 1005.20,637.18 1010.04,639.43 1012.84,643.34 1013.60,648.90"/>
    </edge>
    <edge id=":3153556582_6" function="internal">
        <lane id=":3153556582_6_0" index="0" disallow="tram rail_urban rail rail_electric rail_fast ship container cable_car subway aircraft wheelchair scooter drone" speed="3.65" length="4.67" shape="998.34,636.58 999.56,637.34 999.98,638.13 999.61,638.94 998.43,639.78"/>
    </edge>
    <edge id=":3153556582_7" function="internal">
        <lane id=":3153556582_7_0" index="0" disallow="tram rail_urban rail rail_electric rail_fast ship container cable_car subway aircraft wheelchair scooter drone" speed="6.36" length="9.04" shape="1004.01,648.52 1003.75,646.03 1002.75,644.28 1001.01,643.26 998.52,642.98"/>
    </edge>
    <edge id=":3153556582_8" function="internal">
        <lane id=":3153556582_8_0" index="0" disallow="tram rail_urban rail rail_electric rail_fast ship container cable_car subway aircraft wheelchair scooter drone" speed="13.41" length="24.55" shape="1004.01,648.52 1004.79,641.00 1006.04,635.61 1007.22,630.64 1007.79,624.37"/>
        <lane id=":3153556582_8_1" index="1" disallow="tram rail_urban rail rail_electric rail_fast ship container cable_car subway aircraft wheelchair scooter drone" speed="13.41" length="24.55" shape="1007.21,648.65 1007.99,641.09 1009.24,635.68 1010.42,630.68 1010.99,624.40"/>
    </edge>
    <edge id=":3153556582_10" function="internal">
        <lane id=":3153556582_10_0" index="0" disallow="tram rail_urban rail rail_electric rail_fast ship container cable_car subway aircraft wheelchair scooter drone" speed="3.65" length="1.44" shape="1010.40,648.77 1011.25,647.61"/>
    </edge>
    <edge id=":3153556582_13" function="internal">
        <lane id=":3153556582_13_0" index="0" disallow="tram rail_urban rail rail_electric rail_fast ship container cable_car subway aircraft wheelchair scooter drone" speed="3.65" length="3.23" shape="1011.25,647.61 1012.07,647.24 1012.85,647.67 1013.60,648.90"/>
    </edge>
    <edge id=":3324709829_0" function="internal">
        <lane id=":3324709829_0_0" index="0" disallow="tram rail_urban rail rail_electric rail_fast ship container cable_car subway aircraft wheelchair scooter drone" speed="3.65" length="4.67" shape="612.40,511.37 613.25,510.20 614.06,509.83 614.85,510.26 615.60,511.49"/>
    </edge>
    <edge id=":3723719387_0" function="internal">