<additional>
  <!-- Generated by ai.sumo_calibration.calibrate_carfollow.
       UTC timestamp: 2026-05-28T02:43:38.396122Z
       Mode: literature defaults (no empirical fit: see report.md R3).
       Per-field provenance:
         accel            = HCM 6 typical passenger car
         decel            = AASHTO Green Book comfortable decel (3.4 m/s^2) rounded up to SUMO default 4.5
         tau              = Krauss original 1.0s; SUMO default
         sigma            = SUMO default driver imperfection (0.5)
         minGap           = SUMO default; 2.5m queue gap
         maxSpeed         = 50 mph corridor speed limit -> 22.22 m/s
         length           = passenger car typical 5.0m
         apparentDecel    = = decel (eliminates safety overshoot)
         emergencyDecel   = SUMO default upper bound 9.0
  -->
  <vType id="passenger_calibrated" vClass="passenger" carFollowModel="Krauss"
         accel="2.6" decel="4.5" apparentDecel="4.5" emergencyDecel="9.0"
         tau="1.0" sigma="0.5" minGap="2.5" maxSpeed="22.22" length="5.0"/>
</additional>
