<?xml version="1.0" encoding="UTF-8"?>

<!-- generated on 2026-02-16T16:26:23.173686-08:00 by Eclipse SUMO netedit 1.26.0
<neteditConfiguration xmlns:xsi="http://www.w3.org/2001/XMLSchema-instance" xsi:noNamespaceSchemaLocation="http://sumo.dlr.de/xsd/neteditConfiguration.xsd">

    <input>
        <sumo-net-file value="C:\Users\Duke3\Downloads\SUMO\bellevue_5_intersections.net.xml"/>
    </input>

    <output>
        <output-file value="C:\Users\Duke3\Downloads\SUMO\bellevue_5_intersections.net.xml"/>
        <output.street-names value="true"/>
    </output>

    <processing>
        <geometry.min-radius.fix.railways value="false"/>
        <geometry.avoid-overlap value="false"/>
        <geometry.max-grade.fix value="false"/>
        <offset.disable-normalization value="true"/>
        <lefthand value="0"/>
    </processing>

    <junctions>
        <no-turnarounds value="true"/>
        <junctions.corner-detail value="5"/>
        <junctions.limit-turn-speed value="5.50"/>
        <rectangular-lane-cut value="0"/>
    </junctions>

    <pedestrian>
        <walkingareas value="0"/>
    </pedestrian>

</neteditConfiguration>
-->

<net version="1.20" junctionCornerDetail="5" limitTurnSpeed="5.50" avoidOverlap="0" xmlns:xsi="http://www.w3.org/2001/XMLSchema-instance" xsi:noNamespaceSchemaLocation="http://sumo.dlr.de/xsd/net_file.xsd">

    <location netOffset="-559365.14,-5272626.62" convBoundary="31.09,633.01,1202.15,1649.82" origBoundary="-122.209981,47.604286,-122.193603,47.620509" projParameter="+proj=utm +zone=10 +ellps=WGS84 +datum=WGS84 +units=m +no_defs"/>

    <type id="highway.footway" priority="1" numLanes="1" speed="2.78" allow="pedestrian" oneway="1" width="2.00"/>
    <type id="highway.primary" priority="12" numLanes="2" speed="27.78" disallow="tram rail_urban rail rail_electric rail_fast ship container cable_car subway aircraft wheelchair scooter drone" oneway="0"/>
    <type id="highway.residential" priority="3" numLanes="1" speed="13.89" disallow="tram rail_urban rail rail_electric rail_fast ship container cable_car subway aircraft wheelchair scooter drone" oneway="0"/>
    <type id="highway.secondary" priority="11" numLanes="1" speed="27.78" disallow="tram rail_urban rail rail_electric rail_fast ship container cable_car subway aircraft wheelchair scooter drone" oneway="0"/>
    <type id="highway.secondary_link" priority="6" numLanes="1" speed="22.22" disallow="tram rail_urban rail rail_electric rail_fast ship container cable_car subway aircraft wheelchair scooter drone" oneway="0"/>
    <type id="highway.tertiary" priority="10" numLanes="1" speed="22.22" disallow="tram rail_urban rail rail_electric rail_fast ship container cable_car subway aircraft wheelchair scooter drone" oneway="0"/>
    <type id="highway.unclassified" priority="4" numLanes="1" speed="13.89" disallow="tram rail_urban rail rail_electric rail_fast ship container cable_car subway aircraft wheelchair scooter drone" oneway="0"/>

    <edge id=":10154132603_0" function="internal">
        <lane id=":10154132603_0_0" index="0" disallow="tram rail_urban rail rail_electric rail_fast ship container cable_car subway aircraft wheelchair scooter drone" speed="13.41" length="2.31" shape="655.32,640.40 655.28,640.57 655.26,640.68 655.26,640.80 655.28,640.97"/>
        <lane id=":10154132603_0_1" index="1" disallow="tram rail_urban rail rail_electric rail_fast ship container cable_car subway aircraft wheelchair scooter drone" speed="10.11" length="2.31" shape="652.21,639.63 652.09,640.13 652.04,640.48 652.05,640.83 652.10,641.34"/>
        <lane id=":10154132603_0_2" index="2" disallow="tram rail_urban rail rail_electric rail_fast ship container cable_car subway aircraft wheelchair scooter drone" speed="12.94" length="2.31" shape="649.11,638.86 648.91,639.69 648.83,640.27 648.84,640.86 648.92,641.71"/>
        <lane id=":10154132603_0_3" index="3" disallow="tram rail_urban rail rail_electric rail_fast ship container cable_car subway aircraft wheelchair scooter drone" speed="13.41" length="2.31" shape="646.00,638.08 645.73,639.25 645.61,640.06 645.62,640.89 645.75,642.08"/>
    </edge>
    <edge id=":10154170170_0" function="internal">
        <lane id=":10154170170_0_0" index="0" disallow="tram rail_urban rail rail_electric rail_fast ship container cable_car subway aircraft wheelchair scooter drone" speed="13.41" length="0.30" shape="778.84,1071.11 778.54,1071.11"/>
        <lane id=":10154170170_0_1" index="1" disallow="tram rail_urban rail rail_electric rail_fast ship container cable_car subway aircraft wheelchair scooter drone" speed="13.41" length="0.30" shape="778.88,1067.91 778.58,1067.91"/>
    </edge>
    <edge id=":10154170174_0" function="internal">
        <lane id=":10154170174_0_0" index="0" disallow="tram rail_urban rail rail_electric rail_fast ship container cable_car subway aircraft wheelchair scooter drone" speed="13.41" length="8.21" shape="769.52,1071.01 767.12,1071.23 765.51,1071.76 763.90,1072.29 761.50,1072.51"/>
        <lane id=":10154170174_0_1" index="1" disallow="tram rail_urban rail rail_electric rail_fast ship container cable_car subway aircraft wheelchair scooter drone" speed="13.41" length="8.21" shape="769.56,1067.81 767.16,1068.03 765.55,1068.56 763.94,1069.09 761.54,1069.31"/>
        <lane id=":10154170174_0_2" index="2" disallow="tram rail_urban rail rail_electric rail_fast ship container cable_car subway aircraft wheelchair scooter drone" speed="13.41" length="8.21" shape="769.56,1067.81 767.16,1067.53 765.57,1066.96 763.97,1066.39 761.58,1066.11"/>
    </edge>
    <edge id=":11250673726_0" function="internal">
        <lane id=":11250673726_0_0" index="0" disallow="tram rail_urban rail rail_electric rail_fast ship container cable_car subway aircraft wheelchair scooter drone" speed="13.41" length="0.10" shape="697.79,860.65 697.79,860.65"/>
    </edge>
    <edge id=":11250673726_1" function="internal">
        <lane id=":11250673726_1_0" index="0" disallow="tram rail_urban rail rail_electric rail_fast ship container cable_car subway aircraft wheelchair scooter drone" speed="13.41" length="0.10" shape="697.86,854.25 697.86,854.25"/>
        <lane id=":11250673726_1_1" index="1" disallow="tram rail_urban rail rail_electric rail_fast ship container cable_car subway aircraft wheelchair scooter drone" speed="13.41" length="0.10" shape="697.83,857.45 697.83,857.45"/>
    </edge>
    <edge id=":11271098904_0" function="internal">
        <lane id=":11271098904_0_0" index="0" disallow="tram rail_urban rail rail_electric rail_fast ship container cable_car subway aircraft wheelchair scooter drone" speed="27.78" length="0.30" shape="1029.17,1370.82 1029.17,1371.13"/>
    </edge>
    <edge id=":11271098904_1" function="internal">
        <lane id=":11271098904_1_0" index="0" disallow="tram rail_urban rail rail_electric rail_fast ship container cable_car subway aircraft wheelchair scooter drone" speed="27.78" length="0.30" shape="1025.97,1371.09 1025.97,1370.80"/>
    </edge>
    <edge id=":1131730930_0" function="internal">
        <lane id=":1131730930_0_0" index="0" disallow="tram rail_urban rail rail_electric rail_fast ship container cable_car subway aircraft wheelchair scooter drone" speed="27.78" length="0.32" shape="1030.77,1267.15 1030.77,1267.48"/>
    </edge>
    <edge id=":1131730930_1" function="internal">
        <lane id=":1131730930_1_0" index="0" disallow="tram rail_urban rail rail_electric rail_fast ship container cable_car subway aircraft wheelchair scooter drone" speed="27.78" length="0.28" shape="1024.37,1267.35 1024.37,1267.08"/>
        <lane id=":1131730930_1_1" index="1" disallow="tram rail_urban rail rail_electric rail_fast ship container cable_car subway aircraft wheelchair scooter drone" speed="27.78" length="0.28" shape="1027.57,1267.41 1027.57,1267.12"/>
    </edge>
    <edge id=":1132416984_0" function="internal">
        <lane id=":1132416984_0_0" index="0" disallow="tram rail_urban rail rail_electric rail_fast ship container cable_car subway aircraft wheelchair scooter drone" speed="27.78" length="0.30" shape="1037.88,1239.20 1037.87,1239.49"/>
        <lane id=":1132416984_0_1" index="1" disallow="tram rail_urban rail rail_electric rail_fast ship container cable_car subway aircraft wheelchair scooter drone" speed="27.78" length="0.30" shape="1034.68,1239.07 1034.67,1239.37"/>
        <lane id=":1132416984_0_2" index="2" disallow="tram rail_urban rail rail_electric rail_fast ship container cable_car subway aircraft wheelchair scooter drone" speed="27.78" length="0.30" shape="1031.48,1238.95 1031.47,1239.25"/>
    </edge>
    <edge id=":1132416984_3" function="internal">
        <lane id=":1132416984_3_0" index="0" disallow="tram rail_urban rail rail_electric rail_fast ship container cable_car subway aircraft wheelchair scooter drone" speed="27.78" length="0.31" shape="1028.28,1239.13 1028.29,1238.83"/>
    </edge>
    <edge id=":11340656337_0" function="internal">
        <lane id=":11340656337_0_0" index="0" disallow="tram rail_urban rail rail_electric rail_fast ship container cable_car subway aircraft wheelchair scooter drone" speed="2.24" length="0.62" shape="558.53,1578.18 558.35,1578.20 558.23,1578.22 558.11,1578.27 557.95,1578.35"/>
    </edge>
    <edge id=":11340656337_1" function="internal">
        <lane id=":11340656337_1_0" index="0" disallow="tram rail_urban rail rail_electric rail_fast ship container cable_car subway aircraft wheelchair scooter drone" speed="2.24" length="1.85" shape="556.45,1575.53 556.94,1575.28 557.29,1575.13 557.66,1575.06 558.20,1574.99"/>
    </edge>
    <edge id=":11363157406_0" function="internal">
        <lane id=":11363157406_0_0" index="0" disallow="tram rail_urban rail rail_electric rail_fast ship container cable_car subway aircraft wheelchair scooter drone" speed="8.07" length="0.30" shape="606.70,1578.47 606.41,1578.47"/>
    </edge>
    <edge id=":11363157406_1" function="internal">
        <lane id=":11363157406_1_0" index="0" disallow="tram rail_urban rail rail_electric rail_fast ship container cable_car subway aircraft wheelchair scooter drone" speed="8.07" length="0.30" shape="606.45,1575.27 606.76,1575.27"/>
    </edge>
    <edge id=":11704535308_0" function="internal">
        <lane id=":11704535308_0_0" index="0" disallow="tram rail_urban rail rail_electric rail_fast ship container cable_car subway aircraft wheelchair scooter drone" speed="13.41" length="0.15" shape="762.30,656.98 762.15,656.98"/>
        <lane id=":11704535308_0_1" index="1" disallow="tram rail_urban rail rail_electric rail_fast ship container cable_car subway aircraft wheelchair scooter drone" speed="13.41" length="0.15" shape="762.31,653.78 762.16,653.78"/>
    </edge>
    <edge id=":11704535308_2" function="internal">
        <lane id=":11704535308_2_0" index="0" disallow="tram rail_urban rail rail_electric rail_fast ship container cable_car subway aircraft wheelchair scooter drone" speed="13.41" length="0.15" shape="762.18,650.58 762.33,650.58"/>
    </edge>
    <edge id=":11704560102_0" function="internal">
        <lane id=":11704560102_0_0" index="0" disallow="tram rail_urban rail rail_electric rail_fast ship container cable_car subway aircraft wheelchair scooter drone" speed="13.41" length="0.10" shape="847.03,737.36 847.03,737.36"/>
    </edge>
    <edge id=":11704560102_1" function="internal">
        <lane id=":11704560102_1_0" index="0" disallow="tram rail_urban rail rail_electric rail_fast ship container cable_car subway aircraft wheelchair scooter drone" speed="13.41" length="0.10" shape="843.83,737.28 843.83,737.28"/>
    </edge>
    <edge id=":13236860149_0" function="internal">
        <lane id=":13236860149_0_0" index="0" disallow="tram rail_urban rail rail_electric rail_fast ship container cable_car subway aircraft wheelchair scooter drone" speed="13.41" length="8.40" shape="844.76,819.52 845.20,821.99 846.27,823.55 847.33,825.12 847.78,827.59"/>
        <lane id=":13236860149_0_1" index="1" disallow="tram rail_urban rail rail_electric rail_fast ship container cable_car subway aircraft wheelchair scooter drone" speed="13.41" length="8.40" shape="844.76,819.52 844.58,827.52"/>
    </edge>
    <edge id=":13236860149_2" function="internal">
        <lane id=":13236860149_2_0" index="0" disallow="tram rail_urban rail rail_electric rail_fast ship container cable_car subway aircraft wheelchair scooter drone" speed="13.41" length="8.00" shape="841.38,827.44 841.56,819.45"/>
    </edge>
    <edge id=":1329146813_0" function="internal">
        <lane id=":1329146813_0_0" index="0" disallow="tram rail_urban rail rail_electric rail_fast ship container cable_car subway aircraft wheelchair scooter drone" speed="13.41" length="0.28" shape="834.19,1159.89 834.19,1160.16"/>
    </edge>
    <edge id=":1329146813_1" function="internal">
        <lane id=":1329146813_1_0" index="0" disallow="tram rail_urban rail rail_electric rail_fast ship container cable_car subway aircraft wheelchair scooter drone" speed="13.41" length="0.31" shape="830.99,1160.07 831.00,1159.76"/>
    </edge>
    <edge id=":13324197407_0" function="internal">
        <lane id=":13324197407_0_0" index="0" disallow="tram rail_urban rail rail_electric rail_fast ship container cable_car subway aircraft wheelchair scooter drone" speed="22.22" length="8.00" shape="300.75,775.14 292.76,775.57"/>
    </edge>
    <edge id=":13324197407_1" function="internal">
        <lane id=":13324197407_1_0" index="0" disallow="tram rail_urban rail rail_electric rail_fast ship container cable_car subway aircraft wheelchair scooter drone" speed="22.22" length="8.40" shape="292.59,772.38 295.02,771.75 296.50,770.56 297.98,769.38 300.41,768.75"/>
        <lane id=":13324197407_1_1" index="1" disallow="tram rail_urban rail rail_electric rail_fast ship container cable_car subway aircraft wheelchair scooter drone" speed="22.22" length="8.40" shape="292.59,772.38 300.58,771.95"/>
    </edge>
    <edge id=":2986971571_0" function="internal">
        <lane id=":2986971571_0_0" index="0" disallow="tram rail_urban rail rail_electric rail_fast ship container cable_car subway aircraft wheelchair scooter drone" speed="13.41" length="0.25" shape="847.72,709.27 847.72,709.52"/>
    </edge>
    <edge id=":2986971571_1" function="internal">
        <lane id=":2986971571_1_0" index="0" disallow="tram rail_urban rail rail_electric rail_fast ship container cable_car subway aircraft wheelchair scooter drone" speed="13.41" length="0.31" shape="844.52,709.44 844.53,709.13"/>
    </edge>
    <edge id=":2986971574_0" function="internal">
        <lane id=":2986971574_0_0" index="0" disallow="tram rail_urban rail rail_electric rail_fast ship container cable_car subway aircraft wheelchair scooter drone" speed="13.41" length="0.27" shape="845.76,774.65 845.76,774.92"/>
    </edge>
    <edge id=":2986971574_1" function="internal">
        <lane id=":2986971574_1_0" index="0" disallow="tram rail_urban rail rail_electric rail_fast ship container cable_car subway aircraft wheelchair scooter drone" speed="13.41" length="0.31" shape="842.56,774.85 842.57,774.54"/>
    </edge>
    <edge id=":342642891_0" function="internal">
        <lane id=":342642891_0_0" index="0" disallow="tram rail_urban rail rail_electric rail_fast ship container cable_car subway aircraft wheelchair scooter drone" speed="13.41" length="8.06" shape="606.86,649.38 609.24,648.98 610.81,648.35 612.39,647.77 614.78,647.49"/>
        <lane id=":342642891_0_1" index="1" disallow="tram rail_urban rail rail_electric rail_fast ship container cable_car subway aircraft wheelchair scooter drone" speed="13.41" length="8.06" shape="607.06,652.58 609.39,652.18 610.93,651.55 612.48,650.97 614.81,650.69"/>
        <lane id=":342642891_0_2" index="2" disallow="tram rail_urban rail rail_electric rail_fast ship container cable_car subway aircraft wheelchair scooter drone" speed="13.41" length="8.06" shape="607.06,652.58 609.38,652.68 610.95,653.15 612.52,653.67 614.84,653.89"/>
    </edge>
    <edge id=":345885076_0" function="internal">
        <lane id=":345885076_0_0" index="0" disallow="tram rail_urban rail rail_electric rail_fast ship container cable_car subway aircraft wheelchair scooter drone" speed="22.22" length="0.30" shape="948.39,759.76 948.38,760.07"/>
    </edge>
    <edge id=":345885076_1" function="internal">
        <lane id=":345885076_1_0" index="0" disallow="tram rail_urban rail rail_electric rail_fast ship container cable_car subway aircraft wheelchair scooter drone" speed="22.22" length="0.30" shape="945.19,759.95 945.20,759.66"/>
    </edge>
    <edge id=":352933780_0" function="internal">
        <lane id=":352933780_0_0" index="0" disallow="tram rail_urban rail rail_electric rail_fast ship container cable_car subway aircraft wheelchair scooter drone" speed="13.41" length="0.10" shape="692.97,648.55 692.97,648.55"/>
    </edge>
    <edge id=":358257106_0" function="internal">
        <lane id=":358257106_0_0" index="0" disallow="tram rail_urban rail rail_electric rail_fast ship container cable_car subway aircraft wheelchair scooter drone" speed="13.41" length="6.59" shape="756.20,861.27 749.60,861.30"/>
    </edge>
    <edge id=":358257106_1" function="internal">
        <lane id=":358257106_1_0" index="0" disallow="tram rail_urban rail rail_electric rail_fast ship container cable_car subway aircraft wheelchair scooter drone" speed="13.41" length="7.20" shape="749.52,858.10 751.63,857.55 752.89,856.44 754.16,855.35 756.27,854.87"/>
        <lane id=":358257106_1_1" index="1" disallow="tram rail_urban rail rail_electric rail_fast ship container cable_car subway aircraft wheelchair scooter drone" speed="13.41" length="7.20" shape="749.52,858.10 756.23,858.07"/>
    </edge>
    <edge id=":3646788273_0" function="internal">
        <lane id=":3646788273_0_0" index="0" disallow="tram rail_urban rail rail_electric rail_fast ship container cable_car subway aircraft wheelchair scooter drone" speed="13.41" length="8.00" shape="842.11,900.13 841.88,908.12"/>
    </edge>
    <edge id=":3646788273_1" function="internal">
        <lane id=":3646788273_1_0" index="0" disallow="tram rail_urban rail rail_electric rail_fast ship container cable_car subway aircraft wheelchair scooter drone" speed="13.41" length="8.41" shape="838.68,908.03 838.25,905.56 837.19,903.98 836.14,902.41 835.71,899.94"/>
        <lane id=":3646788273_1_1" index="1" disallow="tram rail_urban rail rail_electric rail_fast ship container cable_car subway aircraft wheelchair scooter drone" speed="13.41" length="8.41" shape="838.68,908.03 838.91,900.03"/>
    </edge>
    <edge id=":3646948923_0" function="internal">
        <lane id=":3646948923_0_0" index="0" disallow="tram rail_urban rail rail_electric rail_fast ship container cable_car subway aircraft wheelchair scooter drone" speed="13.41" length="0.30" shape="834.66,1147.92 834.65,1148.21"/>
    </edge>
    <edge id=":3646948923_1" function="internal">
        <lane id=":3646948923_1_0" index="0" disallow="tram rail_urban rail rail_electric rail_fast ship container cable_car subway aircraft wheelchair scooter drone" speed="13.41" length="0.30" shape="831.46,1148.09 831.47,1147.78"/>
    </edge>
    <edge id=":3646951561_0" function="internal">
        <lane id=":3646951561_0_0" index="0" disallow="tram rail_urban rail rail_electric rail_fast ship container cable_car subway aircraft wheelchair scooter drone" speed="13.89" length="0.30" shape="890.65,952.78 890.65,953.07"/>
    </edge>
    <edge id=":3646951561_1" function="internal">
        <lane id=":3646951561_1_0" index="0" disallow="tram rail_urban rail rail_electric rail_fast ship container cable_car subway aircraft wheelchair scooter drone" speed="13.89" length="0.30" shape="887.45,953.01 887.45,952.70"/>
    </edge>
    <edge id=":3648303872_0" function="internal">
        <lane id=":3648303872_0_0" index="0" disallow="tram rail_urban rail rail_electric rail_fast ship container cable_car subway aircraft wheelchair scooter drone" speed="13.41" length="0.30" shape="613.19,1560.64 613.19,1560.34"/>
        <lane id=":3648303872_0_1" index="1" disallow="tram rail_urban rail rail_electric rail_fast ship container cable_car subway aircraft wheelchair scooter drone" speed="13.41" length="0.30" shape="616.39,1560.64 616.39,1560.34"/>
        <lane id=":3648303872_0_2" index="2" disallow="tram rail_urban rail rail_electric rail_fast ship container cable_car subway aircraft wheelchair scooter drone" speed="13.41" length="0.30" shape="619.59,1560.64 619.59,1560.34"/>
    </edge>
    <edge id=":3883946995_0" function="internal">
        <lane id=":3883946995_0_0" index="0" disallow="tram rail_urban rail rail_electric rail_fast ship container cable_car subway aircraft wheelchair scooter drone" speed="13.41" length="0.30" shape="343.29,655.45 342.99,655.45"/>
    </edge>
    <edge id=":3883946995_1" function="internal">
        <lane id=":3883946995_1_0" index="0" disallow="tram rail_urban rail rail_electric rail_fast ship container cable_car subway aircraft wheelchair scooter drone" speed="13.41" length="0.30" shape="342.99,649.05 343.29,649.05"/>
        <lane id=":3883946995_1_1" index="1" disallow="tram rail_urban rail rail_electric rail_fast ship container cable_car subway aircraft wheelchair scooter drone" speed="13.41" length="0.30" shape="342.99,652.25 343.29,652.25"/>
    </edge>
    <edge id=":3888337224_0" function="internal">
        <lane id=":3888337224_0_0" index="0" disallow="tram rail_urban rail rail_electric rail_fast ship container cable_car subway aircraft wheelchair scooter drone" speed="27.78" length="0.30" shape="1029.30,1356.57 1029.30,1356.86"/>
    </edge>
    <edge id=":3888337224_1" function="internal">
        <lane id=":3888337224_1_0" index="0" disallow="tram rail_urban rail rail_electric rail_fast ship container cable_car subway aircraft wheelchair scooter drone" speed="27.78" length="0.30" shape="1026.10,1356.84 1026.10,1356.53"/>
    </edge>
    <edge id=":4245960166_0" function="internal">
        <lane id=":4245960166_0_0" index="0" disallow="tram rail_urban rail rail_electric rail_fast ship container cable_car subway aircraft wheelchair scooter drone" speed="13.41" length="0.27" shape="616.96,1326.80 616.96,1326.49"/>
        <lane id=":4245960166_0_1" index="1" disallow="tram rail_urban rail rail_electric rail_fast ship container cable_car subway aircraft wheelchair scooter drone" speed="13.41" length="0.27" shape="620.16,1326.81 620.16,1326.58"/>
    </edge>
    <edge id=":4270714506_0" function="internal">
        <lane id=":4270714506_0_0" index="0" disallow="tram rail_urban rail rail_electric rail_fast ship container cable_car subway aircraft wheelchair scooter drone" speed="13.41" length="8.00" shape="335.88,655.46 327.88,655.46"/>
    </edge>
    <edge id=":4270714506_1" function="internal">
        <lane id=":4270714506_1_0" index="0" disallow="tram rail_urban rail rail_electric rail_fast ship container cable_car subway aircraft wheelchair scooter drone" speed="13.41" length="8.40" shape="327.88,652.26 330.34,651.76 331.88,650.66 333.42,649.56 335.88,649.06"/>
        <lane id=":4270714506_1_1" index="1" disallow="tram rail_urban rail rail_electric rail_fast ship container cable_car subway aircraft wheelchair scooter drone" speed="13.41" length="8.40" shape="327.88,652.26 335.88,652.26"/>
    </edge>
    <edge id=":4270714507_0" function="internal">
        <lane id=":4270714507_0_0" index="0" disallow="tram rail_urban rail rail_electric rail_fast ship container cable_car subway aircraft wheelchair scooter drone" speed="13.41" length="8.41" shape="284.81,655.44 282.35,655.94 280.81,657.04 279.27,658.14 276.80,658.63"/>
        <lane id=":4270714507_0_1" index="1" disallow="tram rail_urban rail rail_electric rail_fast ship container cable_car subway aircraft wheelchair scooter drone" speed="13.41" length="8.41" shape="284.81,655.44 276.81,655.43"/>
    </edge>
    <edge id=":4270714507_2" function="internal">
        <lane id=":4270714507_2_0" index="0" disallow="tram rail_urban rail rail_electric rail_fast ship container cable_car subway aircraft wheelchair scooter drone" speed="13.41" length="8.80" shape="276.82,649.03 279.28,649.54 280.81,650.64 282.35,651.74 284.81,652.24"/>
    </edge>
    <edge id=":4270714509_0" function="internal">
        <lane id=":4270714509_0_0" index="0" disallow="tram rail_urban rail rail_electric rail_fast ship container cable_car subway aircraft wheelchair scooter drone" speed="27.78" length="8.00" shape="1045.76,712.75 1045.55,720.75"/>
    </edge>
    <edge id=":4270714509_1" function="internal">
        <lane id=":4270714509_1_0" index="0" disallow="tram rail_urban rail rail_electric rail_fast ship container cable_car subway aircraft wheelchair scooter drone" speed="27.78" length="8.40" shape="1042.35,720.67 1041.91,718.19 1040.85,716.63 1039.79,715.06 1039.36,712.58"/>
        <lane id=":4270714509_1_1" index="1" disallow="tram rail_urban rail rail_electric rail_fast ship container cable_car subway aircraft wheelchair scooter drone" speed="27.78" length="8.40" shape="1042.35,720.67 1042.56,712.67"/>
    </edge>
    <edge id=":4270714512_0" function="internal">
        <lane id=":4270714512_0_0" index="0" disallow="tram rail_urban rail rail_electric rail_fast ship container cable_car subway aircraft wheelchair scooter drone" speed="27.78" length="7.99" shape="1045.31,729.99 1045.12,737.99"/>
    </edge>
    <edge id=":4270714512_1" function="internal">
        <lane id=":4270714512_1_0" index="0" disallow="tram rail_urban rail rail_electric rail_fast ship container cable_car subway aircraft wheelchair scooter drone" speed="27.78" length="8.81" shape="1038.72,737.84 1039.28,735.39 1040.41,733.88 1041.55,732.36 1042.11,729.91"/>
    </edge>
    <edge id=":4270714514_0" function="internal">
        <lane id=":4270714514_0_0" index="0" disallow="tram rail_urban rail rail_electric rail_fast ship container cable_car subway aircraft wheelchair scooter drone" speed="13.41" length="8.14" shape="634.55,806.53 634.39,804.19 633.88,802.61 633.34,801.04 633.09,798.69"/>
        <lane id=":4270714514_0_1" index="1" disallow="tram rail_urban rail rail_electric rail_fast ship container cable_car subway aircraft wheelchair scooter drone" speed="13.41" length="8.14" shape="637.75,806.66 637.59,804.27 637.08,802.67 636.54,801.07 636.29,798.68"/>
        <lane id=":4270714514_0_2" index="2" disallow="tram rail_urban rail rail_electric rail_fast ship container cable_car subway aircraft wheelchair scooter drone" speed="13.41" length="8.14" shape="637.75,806.66 638.09,804.26 638.68,802.67 639.24,801.07 639.49,798.67"/>
    </edge>
    <edge id=":4270714515_0" function="internal">
        <lane id=":4270714515_0_0" index="0" disallow="tram rail_urban rail rail_electric rail_fast ship container cable_car subway aircraft wheelchair scooter drone" speed="13.41" length="8.21" shape="649.37,816.20 649.56,818.60 650.07,820.22 650.58,821.83 650.76,824.23"/>
        <lane id=":4270714515_0_1" index="1" disallow="tram rail_urban rail rail_electric rail_fast ship container cable_car subway aircraft wheelchair scooter drone" speed="13.41" length="8.21" shape="646.18,816.11 646.36,818.51 646.87,820.13 647.38,821.75 647.56,824.15"/>
        <lane id=":4270714515_0_2" index="2" disallow="tram rail_urban rail rail_electric rail_fast ship container cable_car subway aircraft wheelchair scooter drone" speed="13.41" length="8.21" shape="642.98,816.03 643.16,818.43 643.67,820.05 644.18,821.66 644.37,824.07"/>
        <lane id=":4270714515_0_3" index="3" disallow="tram rail_urban rail rail_electric rail_fast ship container cable_car subway aircraft wheelchair scooter drone" speed="13.41" length="8.21" shape="642.98,816.03 642.66,818.42 642.07,820.00 641.48,821.59 641.17,823.98"/>
    </edge>
    <edge id=":4270714516_0" function="internal">
        <lane id=":4270714516_0_0" index="0" disallow="tram rail_urban rail rail_electric rail_fast ship container cable_car subway aircraft wheelchair scooter drone" speed="27.78" length="7.24" shape="1042.72,832.04 1043.16,834.16 1044.22,835.47 1045.29,836.77 1045.74,838.89"/>
        <lane id=":4270714516_0_1" index="1" disallow="tram rail_urban rail rail_electric rail_fast ship container cable_car subway aircraft wheelchair scooter drone" speed="27.78" length="7.24" shape="1042.72,832.04 1042.54,838.82"/>
    </edge>
    <edge id=":4270714516_2" function="internal">
        <lane id=":4270714516_2_0" index="0" disallow="tram rail_urban rail rail_electric rail_fast ship container cable_car subway aircraft wheelchair scooter drone" speed="27.78" length="7.26" shape="1039.34,838.74 1038.89,836.61 1037.83,835.30 1036.76,833.99 1036.32,831.86"/>
        <lane id=":4270714516_2_1" index="1" disallow="tram rail_urban rail rail_electric rail_fast ship container cable_car subway aircraft wheelchair scooter drone" speed="27.78" length="7.26" shape="1039.34,838.74 1039.52,831.95"/>
    </edge>
    <edge id=":4270714519_0" function="internal">
        <lane id=":4270714519_0_0" index="0" disallow="tram rail_urban rail rail_electric rail_fast ship container cable_car subway aircraft wheelchair scooter drone" speed="5.70" length="4.44" shape="631.60,922.88 631.59,921.29 631.41,920.07 631.07,919.21 630.57,918.73"/>
        <lane id=":4270714519_0_1" index="1" disallow="tram rail_urban rail rail_electric rail_fast ship container cable_car subway aircraft wheelchair scooter drone" speed="7.43" length="8.04" shape="634.80,923.00 634.71,920.47 634.22,918.43 633.33,916.91 632.04,915.89"/>